*SPEF "ieee 1481-1999"
*DESIGN "bus_rep_south"
*DATE "11:11:11 Fri 11 11, 1111"
*VENDOR "OpenRCX"
*PROGRAM "Parallel Extraction"
*VERSION "1.0"
*DESIGN_FLOW "NAME_SCOPE LOCAL" "PIN_CAP NONE"
*DIVIDER /
*DELIMITER :
*BUS_DELIMITER []
*T_UNIT 1 NS
*C_UNIT 1 PF
*R_UNIT 1 OHM
*L_UNIT 1 HENRY

*NAME_MAP
*1 ch_in[0]
*2 ch_in[100]
*3 ch_in[101]
*4 ch_in[102]
*5 ch_in[103]
*6 ch_in[104]
*7 ch_in[105]
*8 ch_in[106]
*9 ch_in[107]
*10 ch_in[108]
*11 ch_in[109]
*12 ch_in[10]
*13 ch_in[110]
*14 ch_in[111]
*15 ch_in[112]
*16 ch_in[113]
*17 ch_in[114]
*18 ch_in[115]
*19 ch_in[116]
*20 ch_in[117]
*21 ch_in[118]
*22 ch_in[119]
*23 ch_in[11]
*24 ch_in[120]
*25 ch_in[121]
*26 ch_in[122]
*27 ch_in[123]
*28 ch_in[124]
*29 ch_in[125]
*30 ch_in[126]
*31 ch_in[127]
*32 ch_in[128]
*33 ch_in[129]
*34 ch_in[12]
*35 ch_in[130]
*36 ch_in[131]
*37 ch_in[132]
*38 ch_in[133]
*39 ch_in[134]
*40 ch_in[135]
*41 ch_in[136]
*42 ch_in[137]
*43 ch_in[138]
*44 ch_in[139]
*45 ch_in[13]
*46 ch_in[140]
*47 ch_in[141]
*48 ch_in[142]
*49 ch_in[143]
*50 ch_in[144]
*51 ch_in[145]
*52 ch_in[146]
*53 ch_in[147]
*54 ch_in[148]
*55 ch_in[149]
*56 ch_in[14]
*57 ch_in[150]
*58 ch_in[151]
*59 ch_in[152]
*60 ch_in[153]
*61 ch_in[154]
*62 ch_in[155]
*63 ch_in[156]
*64 ch_in[157]
*65 ch_in[158]
*66 ch_in[159]
*67 ch_in[15]
*68 ch_in[160]
*69 ch_in[161]
*70 ch_in[162]
*71 ch_in[163]
*72 ch_in[164]
*73 ch_in[165]
*74 ch_in[166]
*75 ch_in[167]
*76 ch_in[168]
*77 ch_in[169]
*78 ch_in[16]
*79 ch_in[170]
*80 ch_in[171]
*81 ch_in[172]
*82 ch_in[173]
*83 ch_in[174]
*84 ch_in[175]
*85 ch_in[176]
*86 ch_in[177]
*87 ch_in[178]
*88 ch_in[179]
*89 ch_in[17]
*90 ch_in[180]
*91 ch_in[181]
*92 ch_in[182]
*93 ch_in[183]
*94 ch_in[184]
*95 ch_in[185]
*96 ch_in[186]
*97 ch_in[187]
*98 ch_in[188]
*99 ch_in[189]
*100 ch_in[18]
*101 ch_in[190]
*102 ch_in[191]
*103 ch_in[192]
*104 ch_in[193]
*105 ch_in[194]
*106 ch_in[195]
*107 ch_in[196]
*108 ch_in[197]
*109 ch_in[198]
*110 ch_in[199]
*111 ch_in[19]
*112 ch_in[1]
*113 ch_in[200]
*114 ch_in[201]
*115 ch_in[202]
*116 ch_in[203]
*117 ch_in[204]
*118 ch_in[205]
*119 ch_in[206]
*120 ch_in[207]
*121 ch_in[208]
*122 ch_in[209]
*123 ch_in[20]
*124 ch_in[210]
*125 ch_in[211]
*126 ch_in[212]
*127 ch_in[213]
*128 ch_in[214]
*129 ch_in[215]
*130 ch_in[216]
*131 ch_in[217]
*132 ch_in[218]
*133 ch_in[219]
*134 ch_in[21]
*135 ch_in[220]
*136 ch_in[221]
*137 ch_in[222]
*138 ch_in[223]
*139 ch_in[224]
*140 ch_in[225]
*141 ch_in[226]
*142 ch_in[227]
*143 ch_in[228]
*144 ch_in[229]
*145 ch_in[22]
*146 ch_in[230]
*147 ch_in[231]
*148 ch_in[232]
*149 ch_in[233]
*150 ch_in[234]
*151 ch_in[235]
*152 ch_in[236]
*153 ch_in[237]
*154 ch_in[238]
*155 ch_in[239]
*156 ch_in[23]
*157 ch_in[240]
*158 ch_in[241]
*159 ch_in[242]
*160 ch_in[243]
*161 ch_in[244]
*162 ch_in[245]
*163 ch_in[246]
*164 ch_in[247]
*165 ch_in[248]
*166 ch_in[249]
*167 ch_in[24]
*168 ch_in[250]
*169 ch_in[251]
*170 ch_in[252]
*171 ch_in[25]
*172 ch_in[26]
*173 ch_in[27]
*174 ch_in[28]
*175 ch_in[29]
*176 ch_in[2]
*177 ch_in[30]
*178 ch_in[31]
*179 ch_in[32]
*180 ch_in[33]
*181 ch_in[34]
*182 ch_in[35]
*183 ch_in[36]
*184 ch_in[37]
*185 ch_in[38]
*186 ch_in[39]
*187 ch_in[3]
*188 ch_in[40]
*189 ch_in[41]
*190 ch_in[42]
*191 ch_in[43]
*192 ch_in[44]
*193 ch_in[45]
*194 ch_in[46]
*195 ch_in[47]
*196 ch_in[48]
*197 ch_in[49]
*198 ch_in[4]
*199 ch_in[50]
*200 ch_in[51]
*201 ch_in[52]
*202 ch_in[53]
*203 ch_in[54]
*204 ch_in[55]
*205 ch_in[56]
*206 ch_in[57]
*207 ch_in[58]
*208 ch_in[59]
*209 ch_in[5]
*210 ch_in[60]
*211 ch_in[61]
*212 ch_in[62]
*213 ch_in[63]
*214 ch_in[64]
*215 ch_in[65]
*216 ch_in[66]
*217 ch_in[67]
*218 ch_in[68]
*219 ch_in[69]
*220 ch_in[6]
*221 ch_in[70]
*222 ch_in[71]
*223 ch_in[72]
*224 ch_in[73]
*225 ch_in[74]
*226 ch_in[75]
*227 ch_in[76]
*228 ch_in[77]
*229 ch_in[78]
*230 ch_in[79]
*231 ch_in[7]
*232 ch_in[80]
*233 ch_in[81]
*234 ch_in[82]
*235 ch_in[83]
*236 ch_in[84]
*237 ch_in[85]
*238 ch_in[86]
*239 ch_in[87]
*240 ch_in[88]
*241 ch_in[89]
*242 ch_in[8]
*243 ch_in[90]
*244 ch_in[91]
*245 ch_in[92]
*246 ch_in[93]
*247 ch_in[94]
*248 ch_in[95]
*249 ch_in[96]
*250 ch_in[97]
*251 ch_in[98]
*252 ch_in[99]
*253 ch_in[9]
*254 ch_out[0]
*255 ch_out[100]
*256 ch_out[101]
*257 ch_out[102]
*258 ch_out[103]
*259 ch_out[104]
*260 ch_out[105]
*261 ch_out[106]
*262 ch_out[107]
*263 ch_out[108]
*264 ch_out[109]
*265 ch_out[10]
*266 ch_out[110]
*267 ch_out[111]
*268 ch_out[112]
*269 ch_out[113]
*270 ch_out[114]
*271 ch_out[115]
*272 ch_out[116]
*273 ch_out[117]
*274 ch_out[118]
*275 ch_out[119]
*276 ch_out[11]
*277 ch_out[120]
*278 ch_out[121]
*279 ch_out[122]
*280 ch_out[123]
*281 ch_out[124]
*282 ch_out[125]
*283 ch_out[126]
*284 ch_out[127]
*285 ch_out[128]
*286 ch_out[129]
*287 ch_out[12]
*288 ch_out[130]
*289 ch_out[131]
*290 ch_out[132]
*291 ch_out[133]
*292 ch_out[134]
*293 ch_out[135]
*294 ch_out[136]
*295 ch_out[137]
*296 ch_out[138]
*297 ch_out[139]
*298 ch_out[13]
*299 ch_out[140]
*300 ch_out[141]
*301 ch_out[142]
*302 ch_out[143]
*303 ch_out[144]
*304 ch_out[145]
*305 ch_out[146]
*306 ch_out[147]
*307 ch_out[148]
*308 ch_out[149]
*309 ch_out[14]
*310 ch_out[150]
*311 ch_out[151]
*312 ch_out[152]
*313 ch_out[153]
*314 ch_out[154]
*315 ch_out[155]
*316 ch_out[156]
*317 ch_out[157]
*318 ch_out[158]
*319 ch_out[159]
*320 ch_out[15]
*321 ch_out[160]
*322 ch_out[161]
*323 ch_out[162]
*324 ch_out[163]
*325 ch_out[164]
*326 ch_out[165]
*327 ch_out[166]
*328 ch_out[167]
*329 ch_out[168]
*330 ch_out[169]
*331 ch_out[16]
*332 ch_out[170]
*333 ch_out[171]
*334 ch_out[172]
*335 ch_out[173]
*336 ch_out[174]
*337 ch_out[175]
*338 ch_out[176]
*339 ch_out[177]
*340 ch_out[178]
*341 ch_out[179]
*342 ch_out[17]
*343 ch_out[180]
*344 ch_out[181]
*345 ch_out[182]
*346 ch_out[183]
*347 ch_out[184]
*348 ch_out[185]
*349 ch_out[186]
*350 ch_out[187]
*351 ch_out[188]
*352 ch_out[189]
*353 ch_out[18]
*354 ch_out[190]
*355 ch_out[191]
*356 ch_out[192]
*357 ch_out[193]
*358 ch_out[194]
*359 ch_out[195]
*360 ch_out[196]
*361 ch_out[197]
*362 ch_out[198]
*363 ch_out[199]
*364 ch_out[19]
*365 ch_out[1]
*366 ch_out[200]
*367 ch_out[201]
*368 ch_out[202]
*369 ch_out[203]
*370 ch_out[204]
*371 ch_out[205]
*372 ch_out[206]
*373 ch_out[207]
*374 ch_out[208]
*375 ch_out[209]
*376 ch_out[20]
*377 ch_out[210]
*378 ch_out[211]
*379 ch_out[212]
*380 ch_out[213]
*381 ch_out[214]
*382 ch_out[215]
*383 ch_out[216]
*384 ch_out[217]
*385 ch_out[218]
*386 ch_out[219]
*387 ch_out[21]
*388 ch_out[220]
*389 ch_out[221]
*390 ch_out[222]
*391 ch_out[223]
*392 ch_out[224]
*393 ch_out[225]
*394 ch_out[226]
*395 ch_out[227]
*396 ch_out[228]
*397 ch_out[229]
*398 ch_out[22]
*399 ch_out[230]
*400 ch_out[231]
*401 ch_out[232]
*402 ch_out[233]
*403 ch_out[234]
*404 ch_out[235]
*405 ch_out[236]
*406 ch_out[237]
*407 ch_out[238]
*408 ch_out[239]
*409 ch_out[23]
*410 ch_out[240]
*411 ch_out[241]
*412 ch_out[242]
*413 ch_out[243]
*414 ch_out[244]
*415 ch_out[245]
*416 ch_out[246]
*417 ch_out[247]
*418 ch_out[248]
*419 ch_out[249]
*420 ch_out[24]
*421 ch_out[250]
*422 ch_out[251]
*423 ch_out[252]
*424 ch_out[25]
*425 ch_out[26]
*426 ch_out[27]
*427 ch_out[28]
*428 ch_out[29]
*429 ch_out[2]
*430 ch_out[30]
*431 ch_out[31]
*432 ch_out[32]
*433 ch_out[33]
*434 ch_out[34]
*435 ch_out[35]
*436 ch_out[36]
*437 ch_out[37]
*438 ch_out[38]
*439 ch_out[39]
*440 ch_out[3]
*441 ch_out[40]
*442 ch_out[41]
*443 ch_out[42]
*444 ch_out[43]
*445 ch_out[44]
*446 ch_out[45]
*447 ch_out[46]
*448 ch_out[47]
*449 ch_out[48]
*450 ch_out[49]
*451 ch_out[4]
*452 ch_out[50]
*453 ch_out[51]
*454 ch_out[52]
*455 ch_out[53]
*456 ch_out[54]
*457 ch_out[55]
*458 ch_out[56]
*459 ch_out[57]
*460 ch_out[58]
*461 ch_out[59]
*462 ch_out[5]
*463 ch_out[60]
*464 ch_out[61]
*465 ch_out[62]
*466 ch_out[63]
*467 ch_out[64]
*468 ch_out[65]
*469 ch_out[66]
*470 ch_out[67]
*471 ch_out[68]
*472 ch_out[69]
*473 ch_out[6]
*474 ch_out[70]
*475 ch_out[71]
*476 ch_out[72]
*477 ch_out[73]
*478 ch_out[74]
*479 ch_out[75]
*480 ch_out[76]
*481 ch_out[77]
*482 ch_out[78]
*483 ch_out[79]
*484 ch_out[7]
*485 ch_out[80]
*486 ch_out[81]
*487 ch_out[82]
*488 ch_out[83]
*489 ch_out[84]
*490 ch_out[85]
*491 ch_out[86]
*492 ch_out[87]
*493 ch_out[88]
*494 ch_out[89]
*495 ch_out[8]
*496 ch_out[90]
*497 ch_out[91]
*498 ch_out[92]
*499 ch_out[93]
*500 ch_out[94]
*501 ch_out[95]
*502 ch_out[96]
*503 ch_out[97]
*504 ch_out[98]
*505 ch_out[99]
*506 ch_out[9]
*509 net1
*510 net10
*511 net100
*512 net101
*513 net102
*514 net103
*515 net104
*516 net105
*517 net106
*518 net107
*519 net108
*520 net109
*521 net11
*522 net110
*523 net111
*524 net112
*525 net113
*526 net114
*527 net115
*528 net116
*529 net117
*530 net118
*531 net119
*532 net12
*533 net120
*534 net121
*535 net122
*536 net123
*537 net124
*538 net125
*539 net126
*540 net127
*541 net128
*542 net129
*543 net13
*544 net130
*545 net131
*546 net132
*547 net133
*548 net134
*549 net135
*550 net136
*551 net137
*552 net138
*553 net139
*554 net14
*555 net140
*556 net141
*557 net142
*558 net143
*559 net144
*560 net145
*561 net146
*562 net147
*563 net148
*564 net149
*565 net15
*566 net150
*567 net151
*568 net152
*569 net153
*570 net154
*571 net155
*572 net156
*573 net157
*574 net158
*575 net159
*576 net16
*577 net160
*578 net161
*579 net17
*580 net18
*581 net19
*582 net2
*583 net20
*584 net21
*585 net22
*586 net23
*587 net24
*588 net25
*589 net26
*590 net27
*591 net28
*592 net29
*593 net3
*594 net30
*595 net31
*596 net32
*597 net33
*598 net34
*599 net35
*600 net36
*601 net37
*602 net38
*603 net39
*604 net4
*605 net40
*606 net41
*607 net42
*608 net43
*609 net44
*610 net45
*611 net46
*612 net47
*613 net48
*614 net49
*615 net5
*616 net50
*617 net51
*618 net52
*619 net53
*620 net54
*621 net55
*622 net56
*623 net57
*624 net58
*625 net59
*626 net6
*627 net60
*628 net61
*629 net62
*630 net63
*631 net64
*632 net65
*633 net66
*634 net67
*635 net68
*636 net69
*637 net7
*638 net70
*639 net71
*640 net72
*641 net73
*642 net74
*643 net75
*644 net76
*645 net77
*646 net78
*647 net79
*648 net8
*649 net80
*650 net81
*651 net82
*652 net83
*653 net84
*654 net85
*655 net86
*656 net87
*657 net88
*658 net89
*659 net9
*660 net90
*661 net91
*662 net92
*663 net93
*664 net94
*665 net95
*666 net96
*667 net97
*668 net98
*669 net99
*670 ANTENNA_u_rp\[0\]\.u_buf_A
*671 ANTENNA_u_rp\[100\]\.u_buf_A
*672 ANTENNA_u_rp\[101\]\.u_buf_A
*673 ANTENNA_u_rp\[102\]\.u_buf_A
*674 ANTENNA_u_rp\[103\]\.u_buf_A
*675 ANTENNA_u_rp\[104\]\.u_buf_A
*676 ANTENNA_u_rp\[105\]\.u_buf_A
*677 ANTENNA_u_rp\[106\]\.u_buf_A
*678 ANTENNA_u_rp\[107\]\.u_buf_A
*679 ANTENNA_u_rp\[108\]\.u_buf_A
*680 ANTENNA_u_rp\[109\]\.u_buf_A
*681 ANTENNA_u_rp\[10\]\.u_buf_A
*682 ANTENNA_u_rp\[110\]\.u_buf_A
*683 ANTENNA_u_rp\[111\]\.u_buf_A
*684 ANTENNA_u_rp\[112\]\.u_buf_A
*685 ANTENNA_u_rp\[113\]\.u_buf_A
*686 ANTENNA_u_rp\[114\]\.u_buf_A
*687 ANTENNA_u_rp\[115\]\.u_buf_A
*688 ANTENNA_u_rp\[116\]\.u_buf_A
*689 ANTENNA_u_rp\[117\]\.u_buf_A
*690 ANTENNA_u_rp\[118\]\.u_buf_A
*691 ANTENNA_u_rp\[119\]\.u_buf_A
*692 ANTENNA_u_rp\[11\]\.u_buf_A
*693 ANTENNA_u_rp\[120\]\.u_buf_A
*694 ANTENNA_u_rp\[121\]\.u_buf_A
*695 ANTENNA_u_rp\[122\]\.u_buf_A
*696 ANTENNA_u_rp\[123\]\.u_buf_A
*697 ANTENNA_u_rp\[124\]\.u_buf_A
*698 ANTENNA_u_rp\[125\]\.u_buf_A
*699 ANTENNA_u_rp\[126\]\.u_buf_A
*700 ANTENNA_u_rp\[127\]\.u_buf_A
*701 ANTENNA_u_rp\[128\]\.u_buf_A
*702 ANTENNA_u_rp\[129\]\.u_buf_A
*703 ANTENNA_u_rp\[12\]\.u_buf_A
*704 ANTENNA_u_rp\[130\]\.u_buf_A
*705 ANTENNA_u_rp\[131\]\.u_buf_A
*706 ANTENNA_u_rp\[132\]\.u_buf_A
*707 ANTENNA_u_rp\[133\]\.u_buf_A
*708 ANTENNA_u_rp\[134\]\.u_buf_A
*709 ANTENNA_u_rp\[135\]\.u_buf_A
*710 ANTENNA_u_rp\[136\]\.u_buf_A
*711 ANTENNA_u_rp\[137\]\.u_buf_A
*712 ANTENNA_u_rp\[138\]\.u_buf_A
*713 ANTENNA_u_rp\[139\]\.u_buf_A
*714 ANTENNA_u_rp\[13\]\.u_buf_A
*715 ANTENNA_u_rp\[140\]\.u_buf_A
*716 ANTENNA_u_rp\[141\]\.u_buf_A
*717 ANTENNA_u_rp\[142\]\.u_buf_A
*718 ANTENNA_u_rp\[143\]\.u_buf_A
*719 ANTENNA_u_rp\[144\]\.u_buf_A
*720 ANTENNA_u_rp\[145\]\.u_buf_A
*721 ANTENNA_u_rp\[146\]\.u_buf_A
*722 ANTENNA_u_rp\[147\]\.u_buf_A
*723 ANTENNA_u_rp\[148\]\.u_buf_A
*724 ANTENNA_u_rp\[149\]\.u_buf_A
*725 ANTENNA_u_rp\[14\]\.u_buf_A
*726 ANTENNA_u_rp\[150\]\.u_buf_A
*727 ANTENNA_u_rp\[151\]\.u_buf_A
*728 ANTENNA_u_rp\[152\]\.u_buf_A
*729 ANTENNA_u_rp\[153\]\.u_buf_A
*730 ANTENNA_u_rp\[154\]\.u_buf_A
*731 ANTENNA_u_rp\[155\]\.u_buf_A
*732 ANTENNA_u_rp\[156\]\.u_buf_A
*733 ANTENNA_u_rp\[157\]\.u_buf_A
*734 ANTENNA_u_rp\[158\]\.u_buf_A
*735 ANTENNA_u_rp\[159\]\.u_buf_A
*736 ANTENNA_u_rp\[15\]\.u_buf_A
*737 ANTENNA_u_rp\[160\]\.u_buf_A
*738 ANTENNA_u_rp\[161\]\.u_buf_A
*739 ANTENNA_u_rp\[162\]\.u_buf_A
*740 ANTENNA_u_rp\[163\]\.u_buf_A
*741 ANTENNA_u_rp\[164\]\.u_buf_A
*742 ANTENNA_u_rp\[165\]\.u_buf_A
*743 ANTENNA_u_rp\[166\]\.u_buf_A
*744 ANTENNA_u_rp\[167\]\.u_buf_A
*745 ANTENNA_u_rp\[168\]\.u_buf_A
*746 ANTENNA_u_rp\[169\]\.u_buf_A
*747 ANTENNA_u_rp\[16\]\.u_buf_A
*748 ANTENNA_u_rp\[170\]\.u_buf_A
*749 ANTENNA_u_rp\[171\]\.u_buf_A
*750 ANTENNA_u_rp\[172\]\.u_buf_A
*751 ANTENNA_u_rp\[173\]\.u_buf_A
*752 ANTENNA_u_rp\[174\]\.u_buf_A
*753 ANTENNA_u_rp\[175\]\.u_buf_A
*754 ANTENNA_u_rp\[176\]\.u_buf_A
*755 ANTENNA_u_rp\[177\]\.u_buf_A
*756 ANTENNA_u_rp\[178\]\.u_buf_A
*757 ANTENNA_u_rp\[179\]\.u_buf_A
*758 ANTENNA_u_rp\[17\]\.u_buf_A
*759 ANTENNA_u_rp\[180\]\.u_buf_A
*760 ANTENNA_u_rp\[181\]\.u_buf_A
*761 ANTENNA_u_rp\[182\]\.u_buf_A
*762 ANTENNA_u_rp\[183\]\.u_buf_A
*763 ANTENNA_u_rp\[184\]\.u_buf_A
*764 ANTENNA_u_rp\[185\]\.u_buf_A
*765 ANTENNA_u_rp\[186\]\.u_buf_A
*766 ANTENNA_u_rp\[187\]\.u_buf_A
*767 ANTENNA_u_rp\[188\]\.u_buf_A
*768 ANTENNA_u_rp\[189\]\.u_buf_A
*769 ANTENNA_u_rp\[18\]\.u_buf_A
*770 ANTENNA_u_rp\[190\]\.u_buf_A
*771 ANTENNA_u_rp\[191\]\.u_buf_A
*772 ANTENNA_u_rp\[192\]\.u_buf_A
*773 ANTENNA_u_rp\[193\]\.u_buf_A
*774 ANTENNA_u_rp\[194\]\.u_buf_A
*775 ANTENNA_u_rp\[195\]\.u_buf_A
*776 ANTENNA_u_rp\[196\]\.u_buf_A
*777 ANTENNA_u_rp\[197\]\.u_buf_A
*778 ANTENNA_u_rp\[198\]\.u_buf_A
*779 ANTENNA_u_rp\[199\]\.u_buf_A
*780 ANTENNA_u_rp\[19\]\.u_buf_A
*781 ANTENNA_u_rp\[1\]\.u_buf_A
*782 ANTENNA_u_rp\[200\]\.u_buf_A
*783 ANTENNA_u_rp\[201\]\.u_buf_A
*784 ANTENNA_u_rp\[202\]\.u_buf_A
*785 ANTENNA_u_rp\[203\]\.u_buf_A
*786 ANTENNA_u_rp\[204\]\.u_buf_A
*787 ANTENNA_u_rp\[205\]\.u_buf_A
*788 ANTENNA_u_rp\[206\]\.u_buf_A
*789 ANTENNA_u_rp\[207\]\.u_buf_A
*790 ANTENNA_u_rp\[208\]\.u_buf_A
*791 ANTENNA_u_rp\[209\]\.u_buf_A
*792 ANTENNA_u_rp\[20\]\.u_buf_A
*793 ANTENNA_u_rp\[210\]\.u_buf_A
*794 ANTENNA_u_rp\[211\]\.u_buf_A
*795 ANTENNA_u_rp\[212\]\.u_buf_A
*796 ANTENNA_u_rp\[213\]\.u_buf_A
*797 ANTENNA_u_rp\[214\]\.u_buf_A
*798 ANTENNA_u_rp\[215\]\.u_buf_A
*799 ANTENNA_u_rp\[216\]\.u_buf_A
*800 ANTENNA_u_rp\[217\]\.u_buf_A
*801 ANTENNA_u_rp\[218\]\.u_buf_A
*802 ANTENNA_u_rp\[219\]\.u_buf_A
*803 ANTENNA_u_rp\[21\]\.u_buf_A
*804 ANTENNA_u_rp\[220\]\.u_buf_A
*805 ANTENNA_u_rp\[221\]\.u_buf_A
*806 ANTENNA_u_rp\[222\]\.u_buf_A
*807 ANTENNA_u_rp\[223\]\.u_buf_A
*808 ANTENNA_u_rp\[224\]\.u_buf_A
*809 ANTENNA_u_rp\[225\]\.u_buf_A
*810 ANTENNA_u_rp\[226\]\.u_buf_A
*811 ANTENNA_u_rp\[227\]\.u_buf_A
*812 ANTENNA_u_rp\[228\]\.u_buf_A
*813 ANTENNA_u_rp\[229\]\.u_buf_A
*814 ANTENNA_u_rp\[22\]\.u_buf_A
*815 ANTENNA_u_rp\[230\]\.u_buf_A
*816 ANTENNA_u_rp\[231\]\.u_buf_A
*817 ANTENNA_u_rp\[232\]\.u_buf_A
*818 ANTENNA_u_rp\[233\]\.u_buf_A
*819 ANTENNA_u_rp\[234\]\.u_buf_A
*820 ANTENNA_u_rp\[235\]\.u_buf_A
*821 ANTENNA_u_rp\[236\]\.u_buf_A
*822 ANTENNA_u_rp\[237\]\.u_buf_A
*823 ANTENNA_u_rp\[238\]\.u_buf_A
*824 ANTENNA_u_rp\[239\]\.u_buf_A
*825 ANTENNA_u_rp\[23\]\.u_buf_A
*826 ANTENNA_u_rp\[240\]\.u_buf_A
*827 ANTENNA_u_rp\[241\]\.u_buf_A
*828 ANTENNA_u_rp\[242\]\.u_buf_A
*829 ANTENNA_u_rp\[243\]\.u_buf_A
*830 ANTENNA_u_rp\[244\]\.u_buf_A
*831 ANTENNA_u_rp\[245\]\.u_buf_A
*832 ANTENNA_u_rp\[246\]\.u_buf_A
*833 ANTENNA_u_rp\[247\]\.u_buf_A
*834 ANTENNA_u_rp\[248\]\.u_buf_A
*835 ANTENNA_u_rp\[249\]\.u_buf_A
*836 ANTENNA_u_rp\[24\]\.u_buf_A
*837 ANTENNA_u_rp\[250\]\.u_buf_A
*838 ANTENNA_u_rp\[251\]\.u_buf_A
*839 ANTENNA_u_rp\[252\]\.u_buf_A
*840 ANTENNA_u_rp\[25\]\.u_buf_A
*841 ANTENNA_u_rp\[26\]\.u_buf_A
*842 ANTENNA_u_rp\[27\]\.u_buf_A
*843 ANTENNA_u_rp\[28\]\.u_buf_A
*844 ANTENNA_u_rp\[29\]\.u_buf_A
*845 ANTENNA_u_rp\[2\]\.u_buf_A
*846 ANTENNA_u_rp\[30\]\.u_buf_A
*847 ANTENNA_u_rp\[31\]\.u_buf_A
*848 ANTENNA_u_rp\[32\]\.u_buf_A
*849 ANTENNA_u_rp\[33\]\.u_buf_A
*850 ANTENNA_u_rp\[34\]\.u_buf_A
*851 ANTENNA_u_rp\[35\]\.u_buf_A
*852 ANTENNA_u_rp\[36\]\.u_buf_A
*853 ANTENNA_u_rp\[37\]\.u_buf_A
*854 ANTENNA_u_rp\[38\]\.u_buf_A
*855 ANTENNA_u_rp\[39\]\.u_buf_A
*856 ANTENNA_u_rp\[3\]\.u_buf_A
*857 ANTENNA_u_rp\[40\]\.u_buf_A
*858 ANTENNA_u_rp\[41\]\.u_buf_A
*859 ANTENNA_u_rp\[42\]\.u_buf_A
*860 ANTENNA_u_rp\[43\]\.u_buf_A
*861 ANTENNA_u_rp\[44\]\.u_buf_A
*862 ANTENNA_u_rp\[45\]\.u_buf_A
*863 ANTENNA_u_rp\[46\]\.u_buf_A
*864 ANTENNA_u_rp\[47\]\.u_buf_A
*865 ANTENNA_u_rp\[48\]\.u_buf_A
*866 ANTENNA_u_rp\[49\]\.u_buf_A
*867 ANTENNA_u_rp\[4\]\.u_buf_A
*868 ANTENNA_u_rp\[50\]\.u_buf_A
*869 ANTENNA_u_rp\[51\]\.u_buf_A
*870 ANTENNA_u_rp\[52\]\.u_buf_A
*871 ANTENNA_u_rp\[53\]\.u_buf_A
*872 ANTENNA_u_rp\[54\]\.u_buf_A
*873 ANTENNA_u_rp\[55\]\.u_buf_A
*874 ANTENNA_u_rp\[56\]\.u_buf_A
*875 ANTENNA_u_rp\[57\]\.u_buf_A
*876 ANTENNA_u_rp\[58\]\.u_buf_A
*877 ANTENNA_u_rp\[59\]\.u_buf_A
*878 ANTENNA_u_rp\[5\]\.u_buf_A
*879 ANTENNA_u_rp\[60\]\.u_buf_A
*880 ANTENNA_u_rp\[61\]\.u_buf_A
*881 ANTENNA_u_rp\[62\]\.u_buf_A
*882 ANTENNA_u_rp\[63\]\.u_buf_A
*883 ANTENNA_u_rp\[64\]\.u_buf_A
*884 ANTENNA_u_rp\[65\]\.u_buf_A
*885 ANTENNA_u_rp\[66\]\.u_buf_A
*886 ANTENNA_u_rp\[67\]\.u_buf_A
*887 ANTENNA_u_rp\[68\]\.u_buf_A
*888 ANTENNA_u_rp\[69\]\.u_buf_A
*889 ANTENNA_u_rp\[6\]\.u_buf_A
*890 ANTENNA_u_rp\[70\]\.u_buf_A
*891 ANTENNA_u_rp\[71\]\.u_buf_A
*892 ANTENNA_u_rp\[72\]\.u_buf_A
*893 ANTENNA_u_rp\[73\]\.u_buf_A
*894 ANTENNA_u_rp\[74\]\.u_buf_A
*895 ANTENNA_u_rp\[75\]\.u_buf_A
*896 ANTENNA_u_rp\[76\]\.u_buf_A
*897 ANTENNA_u_rp\[77\]\.u_buf_A
*898 ANTENNA_u_rp\[78\]\.u_buf_A
*899 ANTENNA_u_rp\[79\]\.u_buf_A
*900 ANTENNA_u_rp\[7\]\.u_buf_A
*901 ANTENNA_u_rp\[80\]\.u_buf_A
*902 ANTENNA_u_rp\[81\]\.u_buf_A
*903 ANTENNA_u_rp\[82\]\.u_buf_A
*904 ANTENNA_u_rp\[83\]\.u_buf_A
*905 ANTENNA_u_rp\[84\]\.u_buf_A
*906 ANTENNA_u_rp\[85\]\.u_buf_A
*907 ANTENNA_u_rp\[86\]\.u_buf_A
*908 ANTENNA_u_rp\[87\]\.u_buf_A
*909 ANTENNA_u_rp\[88\]\.u_buf_A
*910 ANTENNA_u_rp\[89\]\.u_buf_A
*911 ANTENNA_u_rp\[8\]\.u_buf_A
*912 ANTENNA_u_rp\[90\]\.u_buf_A
*913 ANTENNA_u_rp\[91\]\.u_buf_A
*914 ANTENNA_u_rp\[92\]\.u_buf_A
*915 ANTENNA_u_rp\[93\]\.u_buf_A
*916 ANTENNA_u_rp\[94\]\.u_buf_A
*917 ANTENNA_u_rp\[95\]\.u_buf_A
*918 ANTENNA_u_rp\[96\]\.u_buf_A
*919 ANTENNA_u_rp\[97\]\.u_buf_A
*920 ANTENNA_u_rp\[98\]\.u_buf_A
*921 ANTENNA_u_rp\[99\]\.u_buf_A
*922 ANTENNA_u_rp\[9\]\.u_buf_A
*923 ANTENNA_wire100_A
*924 ANTENNA_wire101_A
*925 ANTENNA_wire102_A
*926 ANTENNA_wire103_A
*927 ANTENNA_wire104_A
*928 ANTENNA_wire105_A
*929 ANTENNA_wire106_A
*930 ANTENNA_wire107_A
*931 ANTENNA_wire108_A
*932 ANTENNA_wire109_A
*933 ANTENNA_wire10_A
*934 ANTENNA_wire110_A
*935 ANTENNA_wire111_A
*936 ANTENNA_wire112_A
*937 ANTENNA_wire113_A
*938 ANTENNA_wire114_A
*939 ANTENNA_wire115_A
*940 ANTENNA_wire116_A
*941 ANTENNA_wire117_A
*942 ANTENNA_wire118_A
*943 ANTENNA_wire119_A
*944 ANTENNA_wire11_A
*945 ANTENNA_wire120_A
*946 ANTENNA_wire121_A
*947 ANTENNA_wire122_A
*948 ANTENNA_wire123_A
*949 ANTENNA_wire124_A
*950 ANTENNA_wire125_A
*951 ANTENNA_wire126_A
*952 ANTENNA_wire127_A
*953 ANTENNA_wire128_A
*954 ANTENNA_wire129_A
*955 ANTENNA_wire12_A
*956 ANTENNA_wire130_A
*957 ANTENNA_wire131_A
*958 ANTENNA_wire132_A
*959 ANTENNA_wire133_A
*960 ANTENNA_wire134_A
*961 ANTENNA_wire135_A
*962 ANTENNA_wire136_A
*963 ANTENNA_wire137_A
*964 ANTENNA_wire138_A
*965 ANTENNA_wire139_A
*966 ANTENNA_wire13_A
*967 ANTENNA_wire140_A
*968 ANTENNA_wire141_A
*969 ANTENNA_wire142_A
*970 ANTENNA_wire143_A
*971 ANTENNA_wire144_A
*972 ANTENNA_wire145_A
*973 ANTENNA_wire146_A
*974 ANTENNA_wire147_A
*975 ANTENNA_wire148_A
*976 ANTENNA_wire149_A
*977 ANTENNA_wire14_A
*978 ANTENNA_wire150_A
*979 ANTENNA_wire151_A
*980 ANTENNA_wire152_A
*981 ANTENNA_wire153_A
*982 ANTENNA_wire154_A
*983 ANTENNA_wire155_A
*984 ANTENNA_wire156_A
*985 ANTENNA_wire157_A
*986 ANTENNA_wire158_A
*987 ANTENNA_wire159_A
*988 ANTENNA_wire15_A
*989 ANTENNA_wire160_A
*990 ANTENNA_wire161_A
*991 ANTENNA_wire16_A
*992 ANTENNA_wire17_A
*993 ANTENNA_wire18_A
*994 ANTENNA_wire19_A
*995 ANTENNA_wire1_A
*996 ANTENNA_wire20_A
*997 ANTENNA_wire21_A
*998 ANTENNA_wire22_A
*999 ANTENNA_wire23_A
*1000 ANTENNA_wire24_A
*1001 ANTENNA_wire25_A
*1002 ANTENNA_wire26_A
*1003 ANTENNA_wire27_A
*1004 ANTENNA_wire28_A
*1005 ANTENNA_wire29_A
*1006 ANTENNA_wire2_A
*1007 ANTENNA_wire30_A
*1008 ANTENNA_wire31_A
*1009 ANTENNA_wire32_A
*1010 ANTENNA_wire33_A
*1011 ANTENNA_wire34_A
*1012 ANTENNA_wire35_A
*1013 ANTENNA_wire36_A
*1014 ANTENNA_wire37_A
*1015 ANTENNA_wire38_A
*1016 ANTENNA_wire39_A
*1017 ANTENNA_wire3_A
*1018 ANTENNA_wire40_A
*1019 ANTENNA_wire41_A
*1020 ANTENNA_wire42_A
*1021 ANTENNA_wire43_A
*1022 ANTENNA_wire44_A
*1023 ANTENNA_wire45_A
*1024 ANTENNA_wire46_A
*1025 ANTENNA_wire47_A
*1026 ANTENNA_wire48_A
*1027 ANTENNA_wire49_A
*1028 ANTENNA_wire4_A
*1029 ANTENNA_wire50_A
*1030 ANTENNA_wire51_A
*1031 ANTENNA_wire52_A
*1032 ANTENNA_wire53_A
*1033 ANTENNA_wire54_A
*1034 ANTENNA_wire55_A
*1035 ANTENNA_wire56_A
*1036 ANTENNA_wire57_A
*1037 ANTENNA_wire58_A
*1038 ANTENNA_wire59_A
*1039 ANTENNA_wire5_A
*1040 ANTENNA_wire60_A
*1041 ANTENNA_wire61_A
*1042 ANTENNA_wire62_A
*1043 ANTENNA_wire63_A
*1044 ANTENNA_wire64_A
*1045 ANTENNA_wire65_A
*1046 ANTENNA_wire66_A
*1047 ANTENNA_wire67_A
*1048 ANTENNA_wire68_A
*1049 ANTENNA_wire69_A
*1050 ANTENNA_wire6_A
*1051 ANTENNA_wire70_A
*1052 ANTENNA_wire71_A
*1053 ANTENNA_wire72_A
*1054 ANTENNA_wire73_A
*1055 ANTENNA_wire74_A
*1056 ANTENNA_wire75_A
*1057 ANTENNA_wire76_A
*1058 ANTENNA_wire77_A
*1059 ANTENNA_wire78_A
*1060 ANTENNA_wire79_A
*1061 ANTENNA_wire7_A
*1062 ANTENNA_wire80_A
*1063 ANTENNA_wire81_A
*1064 ANTENNA_wire82_A
*1065 ANTENNA_wire83_A
*1066 ANTENNA_wire84_A
*1067 ANTENNA_wire85_A
*1068 ANTENNA_wire86_A
*1069 ANTENNA_wire89_A
*1070 ANTENNA_wire8_A
*1071 ANTENNA_wire90_A
*1072 ANTENNA_wire91_A
*1073 ANTENNA_wire92_A
*1074 ANTENNA_wire93_A
*1075 ANTENNA_wire94_A
*1076 ANTENNA_wire95_A
*1077 ANTENNA_wire96_A
*1078 ANTENNA_wire97_A
*1079 ANTENNA_wire98_A
*1080 ANTENNA_wire99_A
*1081 ANTENNA_wire9_A
*1082 FILLER_0_1003
*1083 FILLER_0_1007
*1084 FILLER_0_1009
*1085 FILLER_0_1019
*1086 FILLER_0_1025
*1087 FILLER_0_1033
*1088 FILLER_0_1037
*1089 FILLER_0_1047
*1090 FILLER_0_1059
*1091 FILLER_0_1063
*1092 FILLER_0_1065
*1093 FILLER_0_107
*1094 FILLER_0_1075
*1095 FILLER_0_1087
*1096 FILLER_0_1091
*1097 FILLER_0_1093
*1098 FILLER_0_11
*1099 FILLER_0_1103
*1100 FILLER_0_1109
*1101 FILLER_0_111
*1102 FILLER_0_1117
*1103 FILLER_0_1121
*1104 FILLER_0_113
*1105 FILLER_0_1131
*1106 FILLER_0_1143
*1107 FILLER_0_1146
*1108 FILLER_0_1149
*1109 FILLER_0_1159
*1110 FILLER_0_1171
*1111 FILLER_0_1175
*1112 FILLER_0_1177
*1113 FILLER_0_1187
*1114 FILLER_0_1193
*1115 FILLER_0_1201
*1116 FILLER_0_1205
*1117 FILLER_0_1215
*1118 FILLER_0_1227
*1119 FILLER_0_123
*1120 FILLER_0_1231
*1121 FILLER_0_1233
*1122 FILLER_0_1243
*1123 FILLER_0_1255
*1124 FILLER_0_1259
*1125 FILLER_0_1261
*1126 FILLER_0_1271
*1127 FILLER_0_1277
*1128 FILLER_0_1285
*1129 FILLER_0_1289
*1130 FILLER_0_129
*1131 FILLER_0_1299
*1132 FILLER_0_1311
*1133 FILLER_0_1314
*1134 FILLER_0_1317
*1135 FILLER_0_1327
*1136 FILLER_0_1339
*1137 FILLER_0_1343
*1138 FILLER_0_1345
*1139 FILLER_0_135
*1140 FILLER_0_1355
*1141 FILLER_0_1361
*1142 FILLER_0_1369
*1143 FILLER_0_1373
*1144 FILLER_0_138
*1145 FILLER_0_1383
*1146 FILLER_0_1395
*1147 FILLER_0_1399
*1148 FILLER_0_1401
*1149 FILLER_0_1407
*1150 FILLER_0_141
*1151 FILLER_0_1411
*1152 FILLER_0_1417
*1153 FILLER_0_1425
*1154 FILLER_0_1429
*1155 FILLER_0_1439
*1156 FILLER_0_1445
*1157 FILLER_0_1453
*1158 FILLER_0_1457
*1159 FILLER_0_1463
*1160 FILLER_0_1467
*1161 FILLER_0_1473
*1162 FILLER_0_1481
*1163 FILLER_0_1485
*1164 FILLER_0_1495
*1165 FILLER_0_1507
*1166 FILLER_0_151
*1167 FILLER_0_1511
*1168 FILLER_0_1513
*1169 FILLER_0_1523
*1170 FILLER_0_1529
*1171 FILLER_0_1537
*1172 FILLER_0_1541
*1173 FILLER_0_1551
*1174 FILLER_0_1563
*1175 FILLER_0_1567
*1176 FILLER_0_1569
*1177 FILLER_0_1579
*1178 FILLER_0_1585
*1179 FILLER_0_1593
*1180 FILLER_0_1597
*1181 FILLER_0_1607
*1182 FILLER_0_1619
*1183 FILLER_0_1623
*1184 FILLER_0_1625
*1185 FILLER_0_163
*1186 FILLER_0_1635
*1187 FILLER_0_1641
*1188 FILLER_0_1649
*1189 FILLER_0_1653
*1190 FILLER_0_1663
*1191 FILLER_0_167
*1192 FILLER_0_1675
*1193 FILLER_0_1679
*1194 FILLER_0_1681
*1195 FILLER_0_169
*1196 FILLER_0_1691
*1197 FILLER_0_1697
*1198 FILLER_0_17
*1199 FILLER_0_1705
*1200 FILLER_0_1709
*1201 FILLER_0_1719
*1202 FILLER_0_1731
*1203 FILLER_0_1735
*1204 FILLER_0_1737
*1205 FILLER_0_1747
*1206 FILLER_0_1753
*1207 FILLER_0_1761
*1208 FILLER_0_1765
*1209 FILLER_0_1775
*1210 FILLER_0_1787
*1211 FILLER_0_179
*1212 FILLER_0_1791
*1213 FILLER_0_1793
*1214 FILLER_0_1803
*1215 FILLER_0_1809
*1216 FILLER_0_1817
*1217 FILLER_0_1821
*1218 FILLER_0_1831
*1219 FILLER_0_1843
*1220 FILLER_0_1847
*1221 FILLER_0_1849
*1222 FILLER_0_185
*1223 FILLER_0_1859
*1224 FILLER_0_1865
*1225 FILLER_0_1873
*1226 FILLER_0_1877
*1227 FILLER_0_1887
*1228 FILLER_0_1899
*1229 FILLER_0_1903
*1230 FILLER_0_1905
*1231 FILLER_0_191
*1232 FILLER_0_1915
*1233 FILLER_0_1921
*1234 FILLER_0_1929
*1235 FILLER_0_1933
*1236 FILLER_0_194
*1237 FILLER_0_1943
*1238 FILLER_0_1955
*1239 FILLER_0_1959
*1240 FILLER_0_1961
*1241 FILLER_0_197
*1242 FILLER_0_1971
*1243 FILLER_0_1977
*1244 FILLER_0_1985
*1245 FILLER_0_1989
*1246 FILLER_0_1999
*1247 FILLER_0_2011
*1248 FILLER_0_2015
*1249 FILLER_0_2017
*1250 FILLER_0_2027
*1251 FILLER_0_2033
*1252 FILLER_0_2041
*1253 FILLER_0_2045
*1254 FILLER_0_2055
*1255 FILLER_0_2067
*1256 FILLER_0_207
*1257 FILLER_0_2071
*1258 FILLER_0_2073
*1259 FILLER_0_2083
*1260 FILLER_0_2089
*1261 FILLER_0_2097
*1262 FILLER_0_2101
*1263 FILLER_0_2111
*1264 FILLER_0_2123
*1265 FILLER_0_2127
*1266 FILLER_0_2129
*1267 FILLER_0_2139
*1268 FILLER_0_2145
*1269 FILLER_0_2153
*1270 FILLER_0_2157
*1271 FILLER_0_2167
*1272 FILLER_0_2179
*1273 FILLER_0_2183
*1274 FILLER_0_2185
*1275 FILLER_0_219
*1276 FILLER_0_2195
*1277 FILLER_0_2201
*1278 FILLER_0_2209
*1279 FILLER_0_2213
*1280 FILLER_0_2223
*1281 FILLER_0_223
*1282 FILLER_0_2235
*1283 FILLER_0_2239
*1284 FILLER_0_2241
*1285 FILLER_0_225
*1286 FILLER_0_2251
*1287 FILLER_0_2257
*1288 FILLER_0_2265
*1289 FILLER_0_2269
*1290 FILLER_0_2279
*1291 FILLER_0_2291
*1292 FILLER_0_2295
*1293 FILLER_0_2297
*1294 FILLER_0_2307
*1295 FILLER_0_2313
*1296 FILLER_0_2321
*1297 FILLER_0_2325
*1298 FILLER_0_2335
*1299 FILLER_0_2347
*1300 FILLER_0_235
*1301 FILLER_0_2351
*1302 FILLER_0_2353
*1303 FILLER_0_2363
*1304 FILLER_0_2369
*1305 FILLER_0_2377
*1306 FILLER_0_2381
*1307 FILLER_0_2391
*1308 FILLER_0_2403
*1309 FILLER_0_2407
*1310 FILLER_0_2409
*1311 FILLER_0_241
*1312 FILLER_0_2419
*1313 FILLER_0_2425
*1314 FILLER_0_2433
*1315 FILLER_0_2437
*1316 FILLER_0_2447
*1317 FILLER_0_2459
*1318 FILLER_0_2463
*1319 FILLER_0_2465
*1320 FILLER_0_247
*1321 FILLER_0_2475
*1322 FILLER_0_2481
*1323 FILLER_0_2489
*1324 FILLER_0_2493
*1325 FILLER_0_25
*1326 FILLER_0_250
*1327 FILLER_0_2503
*1328 FILLER_0_2509
*1329 FILLER_0_2517
*1330 FILLER_0_2521
*1331 FILLER_0_253
*1332 FILLER_0_2531
*1333 FILLER_0_2537
*1334 FILLER_0_2545
*1335 FILLER_0_2549
*1336 FILLER_0_2559
*1337 FILLER_0_2565
*1338 FILLER_0_2573
*1339 FILLER_0_2577
*1340 FILLER_0_2587
*1341 FILLER_0_2593
*1342 FILLER_0_2601
*1343 FILLER_0_2605
*1344 FILLER_0_2615
*1345 FILLER_0_2621
*1346 FILLER_0_2629
*1347 FILLER_0_263
*1348 FILLER_0_2633
*1349 FILLER_0_2643
*1350 FILLER_0_2649
*1351 FILLER_0_2657
*1352 FILLER_0_2661
*1353 FILLER_0_2671
*1354 FILLER_0_2677
*1355 FILLER_0_2685
*1356 FILLER_0_2689
*1357 FILLER_0_2699
*1358 FILLER_0_2705
*1359 FILLER_0_2713
*1360 FILLER_0_2717
*1361 FILLER_0_2727
*1362 FILLER_0_2733
*1363 FILLER_0_2741
*1364 FILLER_0_2745
*1365 FILLER_0_275
*1366 FILLER_0_2755
*1367 FILLER_0_2761
*1368 FILLER_0_2769
*1369 FILLER_0_2773
*1370 FILLER_0_2783
*1371 FILLER_0_2789
*1372 FILLER_0_279
*1373 FILLER_0_2797
*1374 FILLER_0_2801
*1375 FILLER_0_281
*1376 FILLER_0_2811
*1377 FILLER_0_2817
*1378 FILLER_0_2825
*1379 FILLER_0_2829
*1380 FILLER_0_2839
*1381 FILLER_0_2845
*1382 FILLER_0_2853
*1383 FILLER_0_2857
*1384 FILLER_0_2867
*1385 FILLER_0_2873
*1386 FILLER_0_2881
*1387 FILLER_0_2885
*1388 FILLER_0_2895
*1389 FILLER_0_29
*1390 FILLER_0_2901
*1391 FILLER_0_2909
*1392 FILLER_0_291
*1393 FILLER_0_2913
*1394 FILLER_0_2923
*1395 FILLER_0_2929
*1396 FILLER_0_2937
*1397 FILLER_0_2941
*1398 FILLER_0_2951
*1399 FILLER_0_2957
*1400 FILLER_0_2965
*1401 FILLER_0_2969
*1402 FILLER_0_297
*1403 FILLER_0_2979
*1404 FILLER_0_2985
*1405 FILLER_0_2993
*1406 FILLER_0_2997
*1407 FILLER_0_3
*1408 FILLER_0_3007
*1409 FILLER_0_3013
*1410 FILLER_0_3021
*1411 FILLER_0_3025
*1412 FILLER_0_303
*1413 FILLER_0_3035
*1414 FILLER_0_3041
*1415 FILLER_0_3049
*1416 FILLER_0_3053
*1417 FILLER_0_306
*1418 FILLER_0_3063
*1419 FILLER_0_3069
*1420 FILLER_0_3077
*1421 FILLER_0_3081
*1422 FILLER_0_309
*1423 FILLER_0_3091
*1424 FILLER_0_3097
*1425 FILLER_0_3105
*1426 FILLER_0_3109
*1427 FILLER_0_3119
*1428 FILLER_0_3125
*1429 FILLER_0_3133
*1430 FILLER_0_3137
*1431 FILLER_0_3147
*1432 FILLER_0_3153
*1433 FILLER_0_3161
*1434 FILLER_0_3165
*1435 FILLER_0_3175
*1436 FILLER_0_3181
*1437 FILLER_0_3189
*1438 FILLER_0_319
*1439 FILLER_0_3193
*1440 FILLER_0_3203
*1441 FILLER_0_3209
*1442 FILLER_0_3217
*1443 FILLER_0_3221
*1444 FILLER_0_3231
*1445 FILLER_0_3237
*1446 FILLER_0_3245
*1447 FILLER_0_3249
*1448 FILLER_0_3259
*1449 FILLER_0_3265
*1450 FILLER_0_3273
*1451 FILLER_0_3277
*1452 FILLER_0_3287
*1453 FILLER_0_3293
*1454 FILLER_0_3301
*1455 FILLER_0_3305
*1456 FILLER_0_331
*1457 FILLER_0_3315
*1458 FILLER_0_3321
*1459 FILLER_0_3329
*1460 FILLER_0_3333
*1461 FILLER_0_3343
*1462 FILLER_0_3349
*1463 FILLER_0_335
*1464 FILLER_0_3357
*1465 FILLER_0_3361
*1466 FILLER_0_337
*1467 FILLER_0_3371
*1468 FILLER_0_3377
*1469 FILLER_0_3385
*1470 FILLER_0_3389