*SPEF "ieee 1481-1999"
*DESIGN "bus_rep_east"
*DATE "11:11:11 Fri 11 11, 1111"
*VENDOR "OpenRCX"
*PROGRAM "Parallel Extraction"
*VERSION "1.0"
*DESIGN_FLOW "NAME_SCOPE LOCAL" "PIN_CAP NONE"
*DIVIDER /
*DELIMITER :
*BUS_DELIMITER []
*T_UNIT 1 NS
*C_UNIT 1 PF
*R_UNIT 1 OHM
*L_UNIT 1 HENRY

*NAME_MAP
*1 ch_in[0]
*2 ch_in[10]
*3 ch_in[11]
*4 ch_in[12]
*5 ch_in[13]
*6 ch_in[14]
*7 ch_in[15]
*8 ch_in[16]
*9 ch_in[17]
*10 ch_in[18]
*11 ch_in[19]
*12 ch_in[1]
*13 ch_in[20]
*14 ch_in[21]
*15 ch_in[22]
*16 ch_in[23]
*17 ch_in[24]
*18 ch_in[25]
*19 ch_in[26]
*20 ch_in[27]
*21 ch_in[28]
*22 ch_in[29]
*23 ch_in[2]
*24 ch_in[30]
*25 ch_in[31]
*26 ch_in[32]
*27 ch_in[33]
*28 ch_in[34]
*29 ch_in[35]
*30 ch_in[36]
*31 ch_in[37]
*32 ch_in[38]
*33 ch_in[39]
*34 ch_in[3]
*35 ch_in[40]
*36 ch_in[41]
*37 ch_in[42]
*38 ch_in[43]
*39 ch_in[44]
*40 ch_in[4]
*41 ch_in[5]
*42 ch_in[6]
*43 ch_in[7]
*44 ch_in[8]
*45 ch_in[9]
*46 ch_out[0]
*47 ch_out[10]
*48 ch_out[11]
*49 ch_out[12]
*50 ch_out[13]
*51 ch_out[14]
*52 ch_out[15]
*53 ch_out[16]
*54 ch_out[17]
*55 ch_out[18]
*56 ch_out[19]
*57 ch_out[1]
*58 ch_out[20]
*59 ch_out[21]
*60 ch_out[22]
*61 ch_out[23]
*62 ch_out[24]
*63 ch_out[25]
*64 ch_out[26]
*65 ch_out[27]
*66 ch_out[28]
*67 ch_out[29]
*68 ch_out[2]
*69 ch_out[30]
*70 ch_out[31]
*71 ch_out[32]
*72 ch_out[33]
*73 ch_out[34]
*74 ch_out[35]
*75 ch_out[36]
*76 ch_out[37]
*77 ch_out[38]
*78 ch_out[39]
*79 ch_out[3]
*80 ch_out[40]
*81 ch_out[41]
*82 ch_out[42]
*83 ch_out[43]
*84 ch_out[44]
*85 ch_out[4]
*86 ch_out[5]
*87 ch_out[6]
*88 ch_out[7]
*89 ch_out[8]
*90 ch_out[9]
*93 net1
*94 net10
*95 net11
*96 net12
*97 net13
*98 net14
*99 net15
*100 net16
*101 net17
*102 net18
*103 net19
*104 net2
*105 net20
*106 net21
*107 net22
*108 net23
*109 net24
*110 net25
*111 net26
*112 net27
*113 net28
*114 net29
*115 net3
*116 net30
*117 net31
*118 net32
*119 net33
*120 net34
*121 net35
*122 net36
*123 net37
*124 net38
*125 net39
*126 net4
*127 net40
*128 net41
*129 net42
*130 net43
*131 net44
*132 net45
*133 net46
*134 net47
*135 net48
*136 net49
*137 net5
*138 net50
*139 net51
*140 net52
*141 net53
*142 net54
*143 net55
*144 net56
*145 net57
*146 net58
*147 net59
*148 net6
*149 net60
*150 net61
*151 net62
*152 net63
*153 net64
*154 net65
*155 net66
*156 net7
*157 net8
*158 net9
*159 ANTENNA_u_rp\[0\]\.u_buf_A
*160 ANTENNA_u_rp\[10\]\.u_buf_A
*161 ANTENNA_u_rp\[11\]\.u_buf_A
*162 ANTENNA_u_rp\[12\]\.u_buf_A
*163 ANTENNA_u_rp\[13\]\.u_buf_A
*164 ANTENNA_u_rp\[14\]\.u_buf_A
*165 ANTENNA_u_rp\[15\]\.u_buf_A
*166 ANTENNA_u_rp\[16\]\.u_buf_A
*167 ANTENNA_u_rp\[17\]\.u_buf_A
*168 ANTENNA_u_rp\[18\]\.u_buf_A
*169 ANTENNA_u_rp\[19\]\.u_buf_A
*170 ANTENNA_u_rp\[1\]\.u_buf_A
*171 ANTENNA_u_rp\[20\]\.u_buf_A
*172 ANTENNA_u_rp\[21\]\.u_buf_A
*173 ANTENNA_u_rp\[22\]\.u_buf_A
*174 ANTENNA_u_rp\[23\]\.u_buf_A
*175 ANTENNA_u_rp\[24\]\.u_buf_A
*176 ANTENNA_u_rp\[25\]\.u_buf_A
*177 ANTENNA_u_rp\[26\]\.u_buf_A
*178 ANTENNA_u_rp\[27\]\.u_buf_A
*179 ANTENNA_u_rp\[28\]\.u_buf_A
*180 ANTENNA_u_rp\[29\]\.u_buf_A
*181 ANTENNA_u_rp\[2\]\.u_buf_A
*182 ANTENNA_u_rp\[30\]\.u_buf_A
*183 ANTENNA_u_rp\[31\]\.u_buf_A
*184 ANTENNA_u_rp\[32\]\.u_buf_A
*185 ANTENNA_u_rp\[33\]\.u_buf_A
*186 ANTENNA_u_rp\[34\]\.u_buf_A
*187 ANTENNA_u_rp\[35\]\.u_buf_A
*188 ANTENNA_u_rp\[36\]\.u_buf_A
*189 ANTENNA_u_rp\[37\]\.u_buf_A
*190 ANTENNA_u_rp\[38\]\.u_buf_A
*191 ANTENNA_u_rp\[39\]\.u_buf_A
*192 ANTENNA_u_rp\[3\]\.u_buf_A
*193 ANTENNA_u_rp\[40\]\.u_buf_A
*194 ANTENNA_u_rp\[41\]\.u_buf_A
*195 ANTENNA_u_rp\[42\]\.u_buf_A
*196 ANTENNA_u_rp\[43\]\.u_buf_A
*197 ANTENNA_u_rp\[44\]\.u_buf_A
*198 ANTENNA_u_rp\[4\]\.u_buf_A
*199 ANTENNA_u_rp\[5\]\.u_buf_A
*200 ANTENNA_u_rp\[6\]\.u_buf_A
*201 ANTENNA_u_rp\[7\]\.u_buf_A
*202 ANTENNA_u_rp\[8\]\.u_buf_A
*203 ANTENNA_u_rp\[9\]\.u_buf_A
*204 ANTENNA_wire11_A
*205 ANTENNA_wire12_A
*206 ANTENNA_wire13_A
*207 ANTENNA_wire14_A
*208 ANTENNA_wire15_A
*209 ANTENNA_wire17_A
*210 ANTENNA_wire18_A
*211 ANTENNA_wire19_A
*212 ANTENNA_wire21_A
*213 ANTENNA_wire22_A
*214 ANTENNA_wire23_A
*215 ANTENNA_wire24_A
*216 ANTENNA_wire25_A
*217 ANTENNA_wire26_A
*218 ANTENNA_wire27_A
*219 ANTENNA_wire28_A
*220 ANTENNA_wire29_A
*221 ANTENNA_wire2_A
*222 ANTENNA_wire30_A
*223 ANTENNA_wire31_A
*224 ANTENNA_wire32_A
*225 ANTENNA_wire33_A
*226 ANTENNA_wire34_A
*227 ANTENNA_wire35_A
*228 ANTENNA_wire36_A
*229 ANTENNA_wire37_A
*230 ANTENNA_wire38_A
*231 ANTENNA_wire39_A
*232 ANTENNA_wire3_A
*233 ANTENNA_wire40_A
*234 ANTENNA_wire41_A
*235 ANTENNA_wire42_A
*236 ANTENNA_wire43_A
*237 ANTENNA_wire44_A
*238 ANTENNA_wire45_A
*239 ANTENNA_wire46_A
*240 ANTENNA_wire47_A
*241 ANTENNA_wire48_A
*242 ANTENNA_wire49_A
*243 ANTENNA_wire4_A
*244 ANTENNA_wire50_A
*245 ANTENNA_wire51_A
*246 ANTENNA_wire52_A
*247 ANTENNA_wire53_A
*248 ANTENNA_wire54_A
*249 ANTENNA_wire55_A
*250 ANTENNA_wire56_A
*251 ANTENNA_wire57_A
*252 ANTENNA_wire58_A
*253 ANTENNA_wire59_A
*254 ANTENNA_wire5_A
*255 ANTENNA_wire60_A
*256 ANTENNA_wire61_A
*257 ANTENNA_wire62_A
*258 ANTENNA_wire63_A
*259 ANTENNA_wire64_A
*260 ANTENNA_wire65_A
*261 ANTENNA_wire66_A
*262 ANTENNA_wire6_A
*263 ANTENNA_wire7_A
*264 ANTENNA_wire8_A
*265 ANTENNA_wire9_A
*266 FILLER_0_1005
*267 FILLER_0_1009
*268 FILLER_0_1019
*269 FILLER_0_1025
*270 FILLER_0_1033
*271 FILLER_0_1037
*272 FILLER_0_1048
*273 FILLER_0_1054
*274 FILLER_0_1062
*275 FILLER_0_1065
*276 FILLER_0_1077
*277 FILLER_0_1089
*278 FILLER_0_109
*279 FILLER_0_1093
*280 FILLER_0_11
*281 FILLER_0_1105
*282 FILLER_0_1117
*283 FILLER_0_1121
*284 FILLER_0_113
*285 FILLER_0_1133
*286 FILLER_0_1145
*287 FILLER_0_1149
*288 FILLER_0_1161
*289 FILLER_0_1173
*290 FILLER_0_1177
*291 FILLER_0_1187
*292 FILLER_0_1193
*293 FILLER_0_1201
*294 FILLER_0_1205
*295 FILLER_0_1216
*296 FILLER_0_1222
*297 FILLER_0_1230
*298 FILLER_0_1233
*299 FILLER_0_1245
*300 FILLER_0_125
*301 FILLER_0_1257
*302 FILLER_0_1261
*303 FILLER_0_1273
*304 FILLER_0_1285
*305 FILLER_0_1289
*306 FILLER_0_1301
*307 FILLER_0_1313
*308 FILLER_0_1317
*309 FILLER_0_1329
*310 FILLER_0_1341
*311 FILLER_0_1345
*312 FILLER_0_1351
*313 FILLER_0_1355
*314 FILLER_0_1361
*315 FILLER_0_1369
*316 FILLER_0_137
*317 FILLER_0_1373
*318 FILLER_0_1385
*319 FILLER_0_1397
*320 FILLER_0_1401
*321 FILLER_0_141
*322 FILLER_0_1413
*323 FILLER_0_1425
*324 FILLER_0_1429
*325 FILLER_0_1441
*326 FILLER_0_1449
*327 FILLER_0_1454
*328 FILLER_0_1457
*329 FILLER_0_1468
*330 FILLER_0_1478
*331 FILLER_0_1485
*332 FILLER_0_1493
*333 FILLER_0_1505
*334 FILLER_0_1511
*335 FILLER_0_1513
*336 FILLER_0_1523
*337 FILLER_0_1529
*338 FILLER_0_153
*339 FILLER_0_1537
*340 FILLER_0_1541
*341 FILLER_0_1552
*342 FILLER_0_1558
*343 FILLER_0_1566
*344 FILLER_0_1569
*345 FILLER_0_1581
*346 FILLER_0_1593
*347 FILLER_0_1597
*348 FILLER_0_1609
*349 FILLER_0_1621
*350 FILLER_0_1625
*351 FILLER_0_1637
*352 FILLER_0_1649
*353 FILLER_0_165
*354 FILLER_0_1653
*355 FILLER_0_1665
*356 FILLER_0_1677
*357 FILLER_0_1681
*358 FILLER_0_169
*359 FILLER_0_1691
*360 FILLER_0_1697
*361 FILLER_0_17
*362 FILLER_0_1705
*363 FILLER_0_1709
*364 FILLER_0_1720
*365 FILLER_0_1726
*366 FILLER_0_1734
*367 FILLER_0_1737
*368 FILLER_0_1749
*369 FILLER_0_1761
*370 FILLER_0_1765
*371 FILLER_0_1777
*372 FILLER_0_1789
*373 FILLER_0_179
*374 FILLER_0_1793
*375 FILLER_0_1805
*376 FILLER_0_1817
*377 FILLER_0_1821
*378 FILLER_0_1833
*379 FILLER_0_1845
*380 FILLER_0_1849
*381 FILLER_0_185
*382 FILLER_0_1859
*383 FILLER_0_1871
*384 FILLER_0_1875
*385 FILLER_0_1877
*386 FILLER_0_1889
*387 FILLER_0_1901
*388 FILLER_0_1905
*389 FILLER_0_1917
*390 FILLER_0_1929
*391 FILLER_0_193
*392 FILLER_0_1933
*393 FILLER_0_1945
*394 FILLER_0_1957
*395 FILLER_0_1961
*396 FILLER_0_197
*397 FILLER_0_1973
*398 FILLER_0_1985
*399 FILLER_0_1989
*400 FILLER_0_2001
*401 FILLER_0_2013
*402 FILLER_0_2017
*403 FILLER_0_2027
*404 FILLER_0_2035
*405 FILLER_0_2042
*406 FILLER_0_2045
*407 FILLER_0_2049
*408 FILLER_0_2063
*409 FILLER_0_2069
*410 FILLER_0_2073
*411 FILLER_0_2085
*412 FILLER_0_209
*413 FILLER_0_2097
*414 FILLER_0_2101
*415 FILLER_0_2113
*416 FILLER_0_2125
*417 FILLER_0_2129
*418 FILLER_0_2141
*419 FILLER_0_2153
*420 FILLER_0_2157
*421 FILLER_0_2169
*422 FILLER_0_2181
*423 FILLER_0_2185
*424 FILLER_0_2195
*425 FILLER_0_2201
*426 FILLER_0_2208
*427 FILLER_0_221
*428 FILLER_0_2213
*429 FILLER_0_2217
*430 FILLER_0_2223
*431 FILLER_0_2230
*432 FILLER_0_2236
*433 FILLER_0_2241
*434 FILLER_0_225
*435 FILLER_0_2253
*436 FILLER_0_2265
*437 FILLER_0_2269
*438 FILLER_0_2281
*439 FILLER_0_2293
*440 FILLER_0_2297
*441 FILLER_0_2309
*442 FILLER_0_2321
*443 FILLER_0_2325
*444 FILLER_0_2337
*445 FILLER_0_2349
*446 FILLER_0_2353
*447 FILLER_0_2363
*448 FILLER_0_237
*449 FILLER_0_2375
*450 FILLER_0_2379
*451 FILLER_0_2381
*452 FILLER_0_2393
*453 FILLER_0_2405
*454 FILLER_0_2409
*455 FILLER_0_2421
*456 FILLER_0_2433
*457 FILLER_0_2437
*458 FILLER_0_2449
*459 FILLER_0_2461
*460 FILLER_0_2465
*461 FILLER_0_2477
*462 FILLER_0_2489
*463 FILLER_0_249
*464 FILLER_0_2493
*465 FILLER_0_25
*466 FILLER_0_2505
*467 FILLER_0_2517
*468 FILLER_0_2521
*469 FILLER_0_253
*470 FILLER_0_2531
*471 FILLER_0_2537
*472 FILLER_0_2545
*473 FILLER_0_2549
*474 FILLER_0_2561
*475 FILLER_0_2573
*476 FILLER_0_2577
*477 FILLER_0_2589
*478 FILLER_0_2601
*479 FILLER_0_2605
*480 FILLER_0_2617
*481 FILLER_0_2629
*482 FILLER_0_2633
*483 FILLER_0_2645
*484 FILLER_0_265
*485 FILLER_0_2657
*486 FILLER_0_2661
*487 FILLER_0_2666
*488 FILLER_0_2676
*489 FILLER_0_2686
*490 FILLER_0_2689
*491 FILLER_0_2699
*492 FILLER_0_2711
*493 FILLER_0_2715
*494 FILLER_0_2717
*495 FILLER_0_2729
*496 FILLER_0_2741
*497 FILLER_0_2745
*498 FILLER_0_2757
*499 FILLER_0_2769
*500 FILLER_0_277
*501 FILLER_0_2773
*502 FILLER_0_2785
*503 FILLER_0_2797
*504 FILLER_0_2801
*505 FILLER_0_281
*506 FILLER_0_2813
*507 FILLER_0_2825
*508 FILLER_0_2829
*509 FILLER_0_2841
*510 FILLER_0_2853
*511 FILLER_0_2857
*512 FILLER_0_2867
*513 FILLER_0_2879
*514 FILLER_0_2883
*515 FILLER_0_2885
*516 FILLER_0_2897
*517 FILLER_0_29
*518 FILLER_0_2909
*519 FILLER_0_2913
*520 FILLER_0_2925
*521 FILLER_0_293
*522 FILLER_0_2937
*523 FILLER_0_2941
*524 FILLER_0_2949
*525 FILLER_0_2952
*526 FILLER_0_2962
*527 FILLER_0_2969
*528 FILLER_0_2973
*529 FILLER_0_2976
*530 FILLER_0_2986
*531 FILLER_0_2994
*532 FILLER_0_2997
*533 FILLER_0_3
*534 FILLER_0_3009
*535 FILLER_0_3017
*536 FILLER_0_3022
*537 FILLER_0_3025
*538 FILLER_0_3035
*539 FILLER_0_3047
*540 FILLER_0_305
*541 FILLER_0_3051
*542 FILLER_0_3053
*543 FILLER_0_3065
*544 FILLER_0_3077
*545 FILLER_0_3081
*546 FILLER_0_309
*547 FILLER_0_3093
*548 FILLER_0_3105
*549 FILLER_0_3109
*550 FILLER_0_3117
*551 FILLER_0_3120
*552 FILLER_0_3130
*553 FILLER_0_3137
*554 FILLER_0_3143
*555 FILLER_0_3153
*556 FILLER_0_3161
*557 FILLER_0_3165
*558 FILLER_0_3169
*559 FILLER_0_3179
*560 FILLER_0_3187
*561 FILLER_0_3190
*562 FILLER_0_3193
*563 FILLER_0_3203
*564 FILLER_0_321
*565 FILLER_0_3215
*566 FILLER_0_3219
*567 FILLER_0_3221
*568 FILLER_0_3233
*569 FILLER_0_3245
*570 FILLER_0_3249
*571 FILLER_0_3261
*572 FILLER_0_3273
*573 FILLER_0_3277
*574 FILLER_0_3289
*575 FILLER_0_3301
*576 FILLER_0_3305
*577 FILLER_0_3317
*578 FILLER_0_3329
*579 FILLER_0_333
*580 FILLER_0_3333
*581 FILLER_0_3345
*582 FILLER_0_3357
*583 FILLER_0_3361
*584 FILLER_0_337
*585 FILLER_0_3371
*586 FILLER_0_3383
*587 FILLER_0_3387
*588 FILLER_0_3389
*589 FILLER_0_3401
*590 FILLER_0_3413
*591 FILLER_0_3417
*592 FILLER_0_3429
*593 FILLER_0_343
*594 FILLER_0_3441
*595 FILLER_0_3445
*596 FILLER_0_3457
*597 FILLER_0_3469
*598 FILLER_0_347
*599 FILLER_0_3473
*600 FILLER_0_3478
*601 FILLER_0_3491
*602 FILLER_0_3499
*603 FILLER_0_3501
*604 FILLER_0_3513
*605 FILLER_0_3526
*606 FILLER_0_3529
*607 FILLER_0_353
*608 FILLER_0_3539
*609 FILLER_0_3551
*610 FILLER_0_3555
*611 FILLER_0_3557
*612 FILLER_0_3569
*613 FILLER_0_3581
*614 FILLER_0_3585
*615 FILLER_0_3593
*616 FILLER_0_361
*617 FILLER_0_3610
*618 FILLER_0_3613
*619 FILLER_0_3617
*620 FILLER_0_3627
*621 FILLER_0_3631
*622 FILLER_0_3638
*623 FILLER_0_3641
*624 FILLER_0_365
*625 FILLER_0_3653
*626 FILLER_0_3666
*627 FILLER_0_3669
*628 FILLER_0_3681
*629 FILLER_0_3694
*630 FILLER_0_3697
*631 FILLER_0_3707
*632 FILLER_0_3713
*633 FILLER_0_3721
*634 FILLER_0_3725
*635 FILLER_0_3737
*636 FILLER_0_3749
*637 FILLER_0_3753
*638 FILLER_0_3765
*639 FILLER_0_377
*640 FILLER_0_3777
*641 FILLER_0_3781
*642 FILLER_0_3793
*643 FILLER_0_3805
*644 FILLER_0_3809
*645 FILLER_0_3821
*646 FILLER_0_3833
*647 FILLER_0_3837
*648 FILLER_0_3849
*649 FILLER_0_3861
*650 FILLER_0_3865
*651 FILLER_0_3875
*652 FILLER_0_3887
*653 FILLER_0_389
*654 FILLER_0_3891
*655 FILLER_0_3893
*656 FILLER_0_3905
*657 FILLER_0_3917
*658 FILLER_0_3921
*659 FILLER_0_393
*660 FILLER_0_3933
*661 FILLER_0_3945
*662 FILLER_0_3949
*663 FILLER_0_3961
*664 FILLER_0_3973
*665 FILLER_0_3977
*666 FILLER_0_3983
*667 FILLER_0_3993
*668 FILLER_0_3999
*669 FILLER_0_4002
*670 FILLER_0_4005
*671 FILLER_0_4016
*672 FILLER_0_4020
*673 FILLER_0_4030
*674 FILLER_0_4033
*675 FILLER_0_4043
*676 FILLER_0_405
*677 FILLER_0_4055
*678 FILLER_0_4059
*679 FILLER_0_4061
*680 FILLER_0_4073
*681 FILLER_0_4085
*682 FILLER_0_4089
*683 FILLER_0_41
*684 FILLER_0_4101
*685 FILLER_0_4113
*686 FILLER_0_4117
*687 FILLER_0_4129
*688 FILLER_0_4141
*689 FILLER_0_4145
*690 FILLER_0_4160
*691 FILLER_0_417
*692 FILLER_0_4170
*693 FILLER_0_4173
*694 FILLER_0_4184
*695 FILLER_0_4188
*696 FILLER_0_4198
*697 FILLER_0_4201
*698 FILLER_0_421
*699 FILLER_0_4211
*700 FILLER_0_4223
*701 FILLER_0_4227
*702 FILLER_0_4229
*703 FILLER_0_4241
*704 FILLER_0_4253
*705 FILLER_0_4257
*706 FILLER_0_4269
*707 FILLER_0_4281
*708 FILLER_0_4285
*709 FILLER_0_429
*710 FILLER_0_4297
*711 FILLER_0_4309
*712 FILLER_0_4313
*713 FILLER_0_4325
*714 FILLER_0_4337
*715 FILLER_0_4341
*716 FILLER_0_4353
*717 FILLER_0_4365
*718 FILLER_0_4369
*719 FILLER_0_437
*720 FILLER_0_4379
*721 FILLER_0_4391
*722 FILLER_0_4395
*723 FILLER_0_4397
*724 FILLER_0_4409
*725 FILLER_0_4421
*726 FILLER_0_4425
*727 FILLER_0_4437
*728 FILLER_0_4449
*729 FILLER_0_445
*730 FILLER_0_4453
*731 FILLER_0_4465
*732 FILLER_0_4477
*733 FILLER_0_4481
*734 FILLER_0_449
*735 FILLER_0_4493
*736 FILLER_0_4501
*737 FILLER_0_4506
*738 FILLER_0_4509
*739 FILLER_0_4520
*740 FILLER_0_4524
*741 FILLER_0_4534
*742 FILLER_0_4537
*743 FILLER_0_4547
*744 FILLER_0_4559
*745 FILLER_0_4563
*746 FILLER_0_4565
*747 FILLER_0_4577
*748 FILLER_0_4589
*749 FILLER_0_4593
*750 FILLER_0_4605
*751 FILLER_0_461
*752 FILLER_0_4617
*753 FILLER_0_4621
*754 FILLER_0_4633
*755 FILLER_0_4639
*756 FILLER_0_4646
*757 FILLER_0_4649
*758 FILLER_0_4653
*759 FILLER_0_4657
*760 FILLER_0_4667
*761 FILLER_0_4673
*762 FILLER_0_4677
*763 FILLER_0_4688
*764 FILLER_0_4701
*765 FILLER_0_4705
*766 FILLER_0_4715
*767 FILLER_0_4728
*768 FILLER_0_473
*769 FILLER_0_4733
*770 FILLER_0_4737
*771 FILLER_0_4749
*772 FILLER_0_4757
*773 FILLER_0_4761
*774 FILLER_0_477
*775 FILLER_0_4773
*776 FILLER_0_4785
*777 FILLER_0_4789
*778 FILLER_0_4801
*779 FILLER_0_4813
*780 FILLER_0_4817
*781 FILLER_0_4829
*782 FILLER_0_4841
*783 FILLER_0_4845
*784 FILLER_0_4857
*785 FILLER_0_4869
*786 FILLER_0_4873
*787 FILLER_0_4883
*788 FILLER_0_489
*789 FILLER_0_4895
*790 FILLER_0_4899
*791 FILLER_0_4901
*792 FILLER_0_4913
*793 FILLER_0_4925
*794 FILLER_0_4929
*795 FILLER_0_4941
*796 FILLER_0_4953
*797 FILLER_0_4957
*798 FILLER_0_4969
*799 FILLER_0_4981
*800 FILLER_0_4985
*801 FILLER_0_4997
*802 FILLER_0_5005
*803 FILLER_0_501
*804 FILLER_0_5010
*805 FILLER_0_5013
*806 FILLER_0_5027
*807 FILLER_0_5039
*808 FILLER_0_5041
*809 FILLER_0_505
*810 FILLER_0_5051
*811 FILLER_0_5063
*812 FILLER_0_5067
*813 FILLER_0_5069
*814 FILLER_0_5081
*815 FILLER_0_5093
*816 FILLER_0_5097
*817 FILLER_0_5109
*818 FILLER_0_5121
*819 FILLER_0_5125
*820 FILLER_0_5137
*821 FILLER_0_5149
*822 FILLER_0_515
*823 FILLER_0_5153
*824 FILLER_0_5165
*825 FILLER_0_5173
*826 FILLER_0_5178
*827 FILLER_0_5181
*828 FILLER_0_5195
*829 FILLER_0_5207
*830 FILLER_0_5209
*831 FILLER_0_521
*832 FILLER_0_5219
*833 FILLER_0_5231
*834 FILLER_0_5235
*835 FILLER_0_5237
*836 FILLER_0_5249
*837 FILLER_0_5261
*838 FILLER_0_5265
*839 FILLER_0_5277
*840 FILLER_0_5289
*841 FILLER_0_529
*842 FILLER_0_5293
*843 FILLER_0_53
*844 FILLER_0_5305
*845 FILLER_0_5317
*846 FILLER_0_5321
*847 FILLER_0_533
*848 FILLER_0_5333
*849 FILLER_0_5345
*850 FILLER_0_5349
*851 FILLER_0_5361
*852 FILLER_0_5373
*853 FILLER_0_5377
*854 FILLER_0_5387
*855 FILLER_0_5399
*856 FILLER_0_5403
*857 FILLER_0_5405
*858 FILLER_0_5417
*859 FILLER_0_5429
*860 FILLER_0_5433
*861 FILLER_0_5445
*862 FILLER_0_545
*863 FILLER_0_5457
*864 FILLER_0_5461
*865 FILLER_0_5473
*866 FILLER_0_5485
*867 FILLER_0_5489
*868 FILLER_0_5501
*869 FILLER_0_5513
*870 FILLER_0_5517
*871 FILLER_0_5525
*872 FILLER_0_5529
*873 FILLER_0_5542
*874 FILLER_0_5545
*875 FILLER_0_5555
*876 FILLER_0_5567
*877 FILLER_0_557
*878 FILLER_0_5571
*879 FILLER_0_5573
*880 FILLER_0_5585
*881 FILLER_0_5597
*882 FILLER_0_5601
*883 FILLER_0_561
*884 FILLER_0_5613
*885 FILLER_0_5625
*886 FILLER_0_5629
*887 FILLER_0_5641
*888 FILLER_0_5653
*889 FILLER_0_5657
*890 FILLER_0_5669
*891 FILLER_0_5681
*892 FILLER_0_5685
*893 FILLER_0_5693
*894 FILLER_0_5697
*895 FILLER_0_57
*896 FILLER_0_5710
*897 FILLER_0_5713
*898 FILLER_0_5723
*899 FILLER_0_573
*900 FILLER_0_5738
*901 FILLER_0_5741
*902 FILLER_0_5754
*903 FILLER_0_5760
*904 FILLER_0_5769
*905 FILLER_0_5781
*906 FILLER_0_5793
*907 FILLER_0_5797
*908 FILLER_0_5809
*909 FILLER_0_5821
*910 FILLER_0_5825
*911 FILLER_0_5837
*912 FILLER_0_5849
*913 FILLER_0_585
*914 FILLER_0_5853
*915 FILLER_0_5865
*916 FILLER_0_5877
*917 FILLER_0_5881
*918 FILLER_0_5887
*919 FILLER_0_589
*920 FILLER_0_5891
*921 FILLER_0_5897
*922 FILLER_0_5905
*923 FILLER_0_5909
*924 FILLER_0_5921
*925 FILLER_0_5933
*926 FILLER_0_5937
*927 FILLER_0_5949
*928 FILLER_0_5961
*929 FILLER_0_5965
*930 FILLER_0_5977
*931 FILLER_0_5989
*932 FILLER_0_5993
*933 FILLER_0_6005
*934 FILLER_0_601
*935 FILLER_0_6017
*936 FILLER_0_6021
*937 FILLER_0_6026
*938 FILLER_0_6046
*939 FILLER_0_6049
*940 FILLER_0_6059
*941 FILLER_0_6071
*942 FILLER_0_6075
*943 FILLER_0_6077
*944 FILLER_0_6089
*945 FILLER_0_6101
*946 FILLER_0_6105
*947 FILLER_0_6117
*948 FILLER_0_6129
*949 FILLER_0_613
*950 FILLER_0_6133
*951 FILLER_0_6145
*952 FILLER_0_6157
*953 FILLER_0_6161
*954 FILLER_0_617
*955 FILLER_0_6173
*956 FILLER_0_6185
*957 FILLER_0_6189
*958 FILLER_0_6194
*959 FILLER_0_6214
*960 FILLER_0_6217
*961 FILLER_0_6227
*962 FILLER_0_6239
*963 FILLER_0_6243
*964 FILLER_0_6245
*965 FILLER_0_6257
*966 FILLER_0_6269
*967 FILLER_0_6273
*968 FILLER_0_6285
*969 FILLER_0_629
*970 FILLER_0_6297
*971 FILLER_0_6301
*972 FILLER_0_6313
*973 FILLER_0_6325
*974 FILLER_0_6329
*975 FILLER_0_6341
*976 FILLER_0_6353
*977 FILLER_0_6357
*978 FILLER_0_6369
*979 FILLER_0_6381
*980 FILLER_0_6385
*981 FILLER_0_6395
*982 FILLER_0_6407
*983 FILLER_0_641
*984 FILLER_0_6411
*985 FILLER_0_6413
*986 FILLER_0_6425
*987 FILLER_0_6437
*988 FILLER_0_6441
*989 FILLER_0_645
*990 FILLER_0_6453
*991 FILLER_0_6465
*992 FILLER_0_6469
*993 FILLER_0_6481
*994 FILLER_0_6493
*995 FILLER_0_6497
*996 FILLER_0_6509
*997 FILLER_0_6521
*998 FILLER_0_6525
*999 FILLER_0_6537
*1000 FILLER_0_6549
*1001 FILLER_0_6553
*1002 FILLER_0_6563
*1003 FILLER_0_657
*1004 FILLER_0_6575
*1005 FILLER_0_6579
*1006 FILLER_0_6581
*1007 FILLER_0_6593
*1008 FILLER_0_6605
*1009 FILLER_0_6609
*1010 FILLER_0_6621
*1011 FILLER_0_6633
*1012 FILLER_0_6637
*1013 FILLER_0_6649
*1014 FILLER_0_6661
*1015 FILLER_0_6665
*1016 FILLER_0_6677
*1017 FILLER_0_6689
*1018 FILLER_0_669
*1019 FILLER_0_6693
*1020 FILLER_0_6705
*1021 FILLER_0_6717
*1022 FILLER_0_6721
*1023 FILLER_0_673
*1024 FILLER_0_6731
*1025 FILLER_0_6743
*1026 FILLER_0_6747
*1027 FILLER_0_6749
*1028 FILLER_0_6757
*1029 FILLER_0_6764
*1030 FILLER_0_6777
*1031 FILLER_0_6788
*1032 FILLER_0_6794
*1033 FILLER_0_6802
*1034 FILLER_0_6805
*1035 FILLER_0_6817
*1036 FILLER_0_6829
*1037 FILLER_0_683
*1038 FILLER_0_6833
*1039 FILLER_0_6845
*1040 FILLER_0_6857
*1041 FILLER_0_6861
*1042 FILLER_0_6873
*1043 FILLER_0_6885
*1044 FILLER_0_6889
*1045 FILLER_0_689
*1046 FILLER_0_6895
*1047 FILLER_0_6899
*1048 FILLER_0_69
*1049 FILLER_0_6905
*1050 FILLER_0_6913
*1051 FILLER_0_6917
*1052 FILLER_0_6929
*1053 FILLER_0_6941
*1054 FILLER_0_6945
*1055 FILLER_0_6957
*1056 FILLER_0_6969
*1057 FILLER_0_697
*1058 FILLER_0_6973
*1059 FILLER_0_6985
*1060 FILLER_0_6997
*1061 FILLER_0_7001
*1062 FILLER_0_701
*1063 FILLER_0_7013
*1064 FILLER_0_7025
*1065 FILLER_0_7029
*1066 FILLER_0_7041
*1067 FILLER_0_7053
*1068 FILLER_0_7057
*1069 FILLER_0_7067
*1070 FILLER_0_7079
*1071 FILLER_0_7083
*1072 FILLER_0_7085
*1073 FILLER_0_7097
*1074 FILLER_0_7109
*1075 FILLER_0_7113
*1076 FILLER_0_7125
*1077 FILLER_0_713
*1078 FILLER_0_7137
*1079 FILLER_0_7141
*1080 FILLER_0_7153
*1081 FILLER_0_7165
*1082 FILLER_0_7169
*1083 FILLER_0_7181
*1084 FILLER_0_7193
*1085 FILLER_0_7197
*1086 FILLER_0_7209
*1087 FILLER_0_7221
*1088 FILLER_0_7225
*1089 FILLER_0_7235
*1090 FILLER_0_7247
*1091 FILLER_0_725
*1092 FILLER_0_7251
*1093 FILLER_0_7253
*1094 FILLER_0_7265
*1095 FILLER_0_7277
*1096 FILLER_0_7281
*1097 FILLER_0_729
*1098 FILLER_0_7293
*1099 FILLER_0_7305
*1100 FILLER_0_7309
*1101 FILLER_0_7321
*1102 FILLER_0_7333
*1103 FILLER_0_7337
*1104 FILLER_0_7349
*1105 FILLER_0_7361
*1106 FILLER_0_7365
*1107 FILLER_0_7377
*1108 FILLER_0_7389
*1109 FILLER_0_7393
*1110 FILLER_0_7403
*1111 FILLER_0_741
*1112 FILLER_0_753
*1113 FILLER_0_757
*1114 FILLER_0_769
*1115 FILLER_0_781
*1116 FILLER_0_785
*1117 FILLER_0_797
*1118 FILLER_0_809
*1119 FILLER_0_81
*1120 FILLER_0_813
*1121 FILLER_0_825
*1122 FILLER_0_837
*1123 FILLER_0_841
*1124 FILLER_0_85
*1125 FILLER_0_851
*1126 FILLER_0_863
*1127 FILLER_0_867
*1128 FILLER_0_869
*1129 FILLER_0_881
*1130 FILLER_0_893
*1131 FILLER_0_897
*1132 FILLER_0_909
*1133 FILLER_0_921
*1134 FILLER_0_925
*1135 FILLER_0_937
*1136 FILLER_0_949
*1137 FILLER_0_953
*1138 FILLER_0_965
*1139 FILLER_0_97
*1140 FILLER_0_977
*1141 FILLER_0_981
*1142 FILLER_0_993
*1143 FILLER_1_1001
*1144 FILLER_1_1007
*1145 FILLER_1_1009
*1146 FILLER_1_1021
*1147 FILLER_1_1033
*1148 FILLER_1_1045
*1149 FILLER_1_105
*1150 FILLER_1_1057
*1151 FILLER_1_1063
*1152 FILLER_1_1065
*1153 FILLER_1_1077
*1154 FILLER_1_1089
*1155 FILLER_1_1101
*1156 FILLER_1_111
*1157 FILLER_1_1113
*1158 FILLER_1_1119
*1159 FILLER_1_1121
*1160 FILLER_1_113
*1161 FILLER_1_1133
*1162 FILLER_1_1145
*1163 FILLER_1_1157
*1164 FILLER_1_1169
*1165 FILLER_1_1175
*1166 FILLER_1_1177
*1167 FILLER_1_1189
*1168 FILLER_1_1201
*1169 FILLER_1_1213
*1170 FILLER_1_1225
*1171 FILLER_1_1231
*1172 FILLER_1_1233
*1173 FILLER_1_1245
*1174 FILLER_1_125
*1175 FILLER_1_1257
*1176 FILLER_1_1269
*1177 FILLER_1_1281
*1178 FILLER_1_1287
*1179 FILLER_1_1289
*1180 FILLER_1_1301
*1181 FILLER_1_1313
*1182 FILLER_1_1325
*1183 FILLER_1_1337
*1184 FILLER_1_1343
*1185 FILLER_1_1345
*1186 FILLER_1_1357
*1187 FILLER_1_1369
*1188 FILLER_1_137
*1189 FILLER_1_1381
*1190 FILLER_1_1393
*1191 FILLER_1_1399
*1192 FILLER_1_1401
*1193 FILLER_1_1413
*1194 FILLER_1_1425
*1195 FILLER_1_1437
*1196 FILLER_1_1449
*1197 FILLER_1_1455
*1198 FILLER_1_1457
*1199 FILLER_1_1469
*1200 FILLER_1_1472
*1201 FILLER_1_1484
*1202 FILLER_1_149
*1203 FILLER_1_1496
*1204 FILLER_1_15
*1205 FILLER_1_1508
*1206 FILLER_1_1513
*1207 FILLER_1_1525
*1208 FILLER_1_1537
*1209 FILLER_1_1549
*1210 FILLER_1_1561
*1211 FILLER_1_1567
*1212 FILLER_1_1569
*1213 FILLER_1_1581
*1214 FILLER_1_1593
*1215 FILLER_1_1605
*1216 FILLER_1_161
*1217 FILLER_1_1617
*1218 FILLER_1_1623
*1219 FILLER_1_1625
*1220 FILLER_1_1637
*1221 FILLER_1_1649
*1222 FILLER_1_1661
*1223 FILLER_1_167
*1224 FILLER_1_1673
*1225 FILLER_1_1679
*1226 FILLER_1_1681
*1227 FILLER_1_169
*1228 FILLER_1_1693
*1229 FILLER_1_1705
*1230 FILLER_1_1717
*1231 FILLER_1_1729
*1232 FILLER_1_1735
*1233 FILLER_1_1737
*1234 FILLER_1_1749
*1235 FILLER_1_1761
*1236 FILLER_1_1773
*1237 FILLER_1_1785
*1238 FILLER_1_1791
*1239 FILLER_1_1793
*1240 FILLER_1_1805
*1241 FILLER_1_181
*1242 FILLER_1_1817
*1243 FILLER_1_1829
*1244 FILLER_1_1841
*1245 FILLER_1_1847
*1246 FILLER_1_1849
*1247 FILLER_1_1855
*1248 FILLER_1_1867
*1249 FILLER_1_1879
*1250 FILLER_1_1891
*1251 FILLER_1_1903
*1252 FILLER_1_1905
*1253 FILLER_1_1917
*1254 FILLER_1_1929
*1255 FILLER_1_193
*1256 FILLER_1_1941
*1257 FILLER_1_1953
*1258 FILLER_1_1959
*1259 FILLER_1_1961
*1260 FILLER_1_1973
*1261 FILLER_1_1985
*1262 FILLER_1_1997
*1263 FILLER_1_2009
*1264 FILLER_1_2015
*1265 FILLER_1_2017
*1266 FILLER_1_2025
*1267 FILLER_1_2029
*1268 FILLER_1_2041
*1269 FILLER_1_205
*1270 FILLER_1_2053
*1271 FILLER_1_2065
*1272 FILLER_1_2071
*1273 FILLER_1_2073
*1274 FILLER_1_2085
*1275 FILLER_1_2097
*1276 FILLER_1_2109
*1277 FILLER_1_2121
*1278 FILLER_1_2127
*1279 FILLER_1_2129
*1280 FILLER_1_2141
*1281 FILLER_1_2153
*1282 FILLER_1_2165
*1283 FILLER_1_217
*1284 FILLER_1_2177
*1285 FILLER_1_2183
*1286 FILLER_1_2185
*1287 FILLER_1_2193
*1288 FILLER_1_2197
*1289 FILLER_1_2209
*1290 FILLER_1_2221
*1291 FILLER_1_223
*1292 FILLER_1_2233
*1293 FILLER_1_2239
*1294 FILLER_1_2241
*1295 FILLER_1_225
*1296 FILLER_1_2253
*1297 FILLER_1_2265
*1298 FILLER_1_2277
*1299 FILLER_1_2289
*1300 FILLER_1_2295
*1301 FILLER_1_2297
*1302 FILLER_1_2309
*1303 FILLER_1_2321
*1304 FILLER_1_2333
*1305 FILLER_1_2345
*1306 FILLER_1_2351
*1307 FILLER_1_2353
*1308 FILLER_1_2359
*1309 FILLER_1_237
*1310 FILLER_1_2371
*1311 FILLER_1_2383
*1312 FILLER_1_2395
*1313 FILLER_1_2407
*1314 FILLER_1_2409
*1315 FILLER_1_2421
*1316 FILLER_1_2433
*1317 FILLER_1_2445
*1318 FILLER_1_2457
*1319 FILLER_1_2463
*1320 FILLER_1_2465
*1321 FILLER_1_2477
*1322 FILLER_1_2489
*1323 FILLER_1_249
*1324 FILLER_1_2501
*1325 FILLER_1_2513
*1326 FILLER_1_2519
*1327 FILLER_1_2521
*1328 FILLER_1_2533
*1329 FILLER_1_2545
*1330 FILLER_1_2557
*1331 FILLER_1_2569
*1332 FILLER_1_2575
*1333 FILLER_1_2577
*1334 FILLER_1_2589
*1335 FILLER_1_2601
*1336 FILLER_1_261
*1337 FILLER_1_2613
*1338 FILLER_1_2625
*1339 FILLER_1_2631
*1340 FILLER_1_2633
*1341 FILLER_1_2645
*1342 FILLER_1_2657
*1343 FILLER_1_2669
*1344 FILLER_1_2681
*1345 FILLER_1_2687
*1346 FILLER_1_2689
*1347 FILLER_1_2699
*1348 FILLER_1_27
*1349 FILLER_1_2711
*1350 FILLER_1_2723
*1351 FILLER_1_273
*1352 FILLER_1_2735
*1353 FILLER_1_2743
*1354 FILLER_1_2745
*1355 FILLER_1_2757
*1356 FILLER_1_2769
*1357 FILLER_1_2781
*1358 FILLER_1_279
*1359 FILLER_1_2793
*1360 FILLER_1_2799
*1361 FILLER_1_2801
*1362 FILLER_1_281
*1363 FILLER_1_2813
*1364 FILLER_1_2825
*1365 FILLER_1_2837
*1366 FILLER_1_2849
*1367 FILLER_1_2855
*1368 FILLER_1_2857
*1369 FILLER_1_2863
*1370 FILLER_1_2875
*1371 FILLER_1_2887
*1372 FILLER_1_2899
*1373 FILLER_1_2911
*1374 FILLER_1_2913
*1375 FILLER_1_2925
*1376 FILLER_1_293
*1377 FILLER_1_2937
*1378 FILLER_1_2949
*1379 FILLER_1_2961
*1380 FILLER_1_2967
*1381 FILLER_1_2969
*1382 FILLER_1_2981
*1383 FILLER_1_2993
*1384 FILLER_1_3
*1385 FILLER_1_3003
*1386 FILLER_1_3015
*1387 FILLER_1_3019
*1388 FILLER_1_3022
*1389 FILLER_1_3025
*1390 FILLER_1_3033
*1391 FILLER_1_3045
*1392 FILLER_1_305
*1393 FILLER_1_3057
*1394 FILLER_1_3069
*1395 FILLER_1_3077
*1396 FILLER_1_3081
*1397 FILLER_1_3093
*1398 FILLER_1_3105
*1399 FILLER_1_3117
*1400 FILLER_1_3129
*1401 FILLER_1_3135
*1402 FILLER_1_3137
*1403 FILLER_1_3149
*1404 FILLER_1_3161
*1405 FILLER_1_3167
*1406 FILLER_1_317
*1407 FILLER_1_3170
*1408 FILLER_1_3182
*1409 FILLER_1_3190
*1410 FILLER_1_3193
*1411 FILLER_1_3204
*1412 FILLER_1_3216
*1413 FILLER_1_3228
*1414 FILLER_1_3240
*1415 FILLER_1_3249
*1416 FILLER_1_3261
*1417 FILLER_1_3273
*1418 FILLER_1_3285
*1419 FILLER_1_329
*1420 FILLER_1_3297
*1421 FILLER_1_3303
*1422 FILLER_1_3305
*1423 FILLER_1_3317
*1424 FILLER_1_3329
*1425 FILLER_1_3341
*1426 FILLER_1_335
*1427 FILLER_1_3353
*1428 FILLER_1_3359
*1429 FILLER_1_3361
*1430 FILLER_1_3367
*1431 FILLER_1_337
*1432 FILLER_1_3379
*1433 FILLER_1_3391
*1434 FILLER_1_3403
*1435 FILLER_1_3415
*1436 FILLER_1_3417
*1437 FILLER_1_3429
*1438 FILLER_1_3441
*1439 FILLER_1_3453
*1440 FILLER_1_3465
*1441 FILLER_1_3471
*1442 FILLER_1_3473
*1443 FILLER_1_3485
*1444 FILLER_1_349
*1445 FILLER_1_3497
*1446 FILLER_1_3501
*1447 FILLER_1_3504
*1448 FILLER_1_3512
*1449 FILLER_1_3517
*1450 FILLER_1_3525
*1451 FILLER_1_3529
*1452 FILLER_1_3535
*1453 FILLER_1_3547
*1454 FILLER_1_3559
*1455 FILLER_1_3571
*1456 FILLER_1_3583
*1457 FILLER_1_3585
*1458 FILLER_1_3595
*1459 FILLER_1_3607
*1460 FILLER_1_361
*1461 FILLER_1_3612
*1462 FILLER_1_3624
*1463 FILLER_1_3629
*1464 FILLER_1_3635
*1465 FILLER_1_3638
*1466 FILLER_1_3641
*1467 FILLER_1_3647
*1468 FILLER_1_3657
*1469 FILLER_1_3665
*1470 FILLER_1_3668
*1471 FILLER_1_3681
*1472 FILLER_1_3687
*1473 FILLER_1_3695
*1474 FILLER_1_3697
*1475 FILLER_1_3708
*1476 FILLER_1_3714
*1477 FILLER_1_3726
*1478 FILLER_1_373
*1479 FILLER_1_3738
*1480 FILLER_1_3750
*1481 FILLER_1_3753
*1482 FILLER_1_3765
*1483 FILLER_1_3777
*1484 FILLER_1_3789
*1485 FILLER_1_3801
*1486 FILLER_1_3807
*1487 FILLER_1_3809
*1488 FILLER_1_3821
*1489 FILLER_1_3833
*1490 FILLER_1_3845
*1491 FILLER_1_385
*1492 FILLER_1_3857
*1493 FILLER_1_3863
*1494 FILLER_1_3865
*1495 FILLER_1_3871
*1496 FILLER_1_3883
*1497 FILLER_1_3895
*1498 FILLER_1_39
*1499 FILLER_1_3907
*1500 FILLER_1_391
*1501 FILLER_1_3919
*1502 FILLER_1_3921
*1503 FILLER_1_393
*1504 FILLER_1_3933
*1505 FILLER_1_3945
*1506 FILLER_1_3957
*1507 FILLER_1_3969
*1508 FILLER_1_3975
*1509 FILLER_1_3977
*1510 FILLER_1_3981
*1511 FILLER_1_3984
*1512 FILLER_1_3996
*1513 FILLER_1_4008
*1514 FILLER_1_4016
*1515 FILLER_1_4021
*1516 FILLER_1_4029
*1517 FILLER_1_4033
*1518 FILLER_1_4039
*1519 FILLER_1_405
*1520 FILLER_1_4051
*1521 FILLER_1_4063
*1522 FILLER_1_4075
*1523 FILLER_1_4087
*1524 FILLER_1_4089
*1525 FILLER_1_4101
*1526 FILLER_1_4113
*1527 FILLER_1_4125
*1528 FILLER_1_4137
*1529 FILLER_1_4143
*1530 FILLER_1_4145
*1531 FILLER_1_4151
*1532 FILLER_1_4163
*1533 FILLER_1_417
*1534 FILLER_1_4175
*1535 FILLER_1_4189
*1536 FILLER_1_4197
*1537 FILLER_1_4201
*1538 FILLER_1_4207
*1539 FILLER_1_4219
*1540 FILLER_1_4231
*1541 FILLER_1_4243
*1542 FILLER_1_4255
*1543 FILLER_1_4257
*1544 FILLER_1_4269
*1545 FILLER_1_4281
*1546 FILLER_1_429
*1547 FILLER_1_4293
*1548 FILLER_1_4305
*1549 FILLER_1_4311
*1550 FILLER_1_4313
*1551 FILLER_1_4325
*1552 FILLER_1_4337
*1553 FILLER_1_4349
*1554 FILLER_1_4361