*SPEF "ieee 1481-1999"
*DESIGN "bus_rep_west"
*DATE "11:11:11 Fri 11 11, 1111"
*VENDOR "OpenRCX"
*PROGRAM "Parallel Extraction"
*VERSION "1.0"
*DESIGN_FLOW "NAME_SCOPE LOCAL" "PIN_CAP NONE"
*DIVIDER /
*DELIMITER :
*BUS_DELIMITER []
*T_UNIT 1 NS
*C_UNIT 1 PF
*R_UNIT 1 OHM
*L_UNIT 1 HENRY

*NAME_MAP
*1 ch_in[0]
*2 ch_in[10]
*3 ch_in[11]
*4 ch_in[12]
*5 ch_in[13]
*6 ch_in[14]
*7 ch_in[15]
*8 ch_in[16]
*9 ch_in[17]
*10 ch_in[18]
*11 ch_in[19]
*12 ch_in[1]
*13 ch_in[20]
*14 ch_in[21]
*15 ch_in[22]
*16 ch_in[23]
*17 ch_in[24]
*18 ch_in[25]
*19 ch_in[26]
*20 ch_in[27]
*21 ch_in[28]
*22 ch_in[29]
*23 ch_in[2]
*24 ch_in[30]
*25 ch_in[31]
*26 ch_in[32]
*27 ch_in[33]
*28 ch_in[34]
*29 ch_in[35]
*30 ch_in[36]
*31 ch_in[37]
*32 ch_in[38]
*33 ch_in[39]
*34 ch_in[3]
*35 ch_in[40]
*36 ch_in[41]
*37 ch_in[4]
*38 ch_in[5]
*39 ch_in[6]
*40 ch_in[7]
*41 ch_in[8]
*42 ch_in[9]
*43 ch_out[0]
*44 ch_out[10]
*45 ch_out[11]
*46 ch_out[12]
*47 ch_out[13]
*48 ch_out[14]
*49 ch_out[15]
*50 ch_out[16]
*51 ch_out[17]
*52 ch_out[18]
*53 ch_out[19]
*54 ch_out[1]
*55 ch_out[20]
*56 ch_out[21]
*57 ch_out[22]
*58 ch_out[23]
*59 ch_out[24]
*60 ch_out[25]
*61 ch_out[26]
*62 ch_out[27]
*63 ch_out[28]
*64 ch_out[29]
*65 ch_out[2]
*66 ch_out[30]
*67 ch_out[31]
*68 ch_out[32]
*69 ch_out[33]
*70 ch_out[34]
*71 ch_out[35]
*72 ch_out[36]
*73 ch_out[37]
*74 ch_out[38]
*75 ch_out[39]
*76 ch_out[3]
*77 ch_out[40]
*78 ch_out[41]
*79 ch_out[4]
*80 ch_out[5]
*81 ch_out[6]
*82 ch_out[7]
*83 ch_out[8]
*84 ch_out[9]
*87 net1
*88 net10
*89 net100
*90 net101
*91 net102
*92 net103
*93 net104
*94 net105
*95 net106
*96 net107
*97 net108
*98 net109
*99 net11
*100 net110
*101 net111
*102 net12
*103 net13
*104 net14
*105 net15
*106 net16
*107 net17
*108 net18
*109 net19
*110 net2
*111 net20
*112 net21
*113 net22
*114 net23
*115 net24
*116 net25
*117 net26
*118 net27
*119 net28
*120 net29
*121 net3
*122 net30
*123 net31
*124 net32
*125 net33
*126 net34
*127 net35
*128 net36
*129 net37
*130 net38
*131 net39
*132 net4
*133 net40
*134 net41
*135 net42
*136 net43
*137 net44
*138 net45
*139 net46
*140 net47
*141 net48
*142 net49
*143 net5
*144 net50
*145 net51
*146 net52
*147 net53
*148 net54
*149 net55
*150 net56
*151 net57
*152 net58
*153 net59
*154 net6
*155 net60
*156 net61
*157 net62
*158 net63
*159 net64
*160 net65
*161 net66
*162 net67
*163 net68
*164 net69
*165 net7
*166 net70
*167 net71
*168 net72
*169 net73
*170 net74
*171 net75
*172 net76
*173 net77
*174 net78
*175 net79
*176 net8
*177 net80
*178 net81
*179 net82
*180 net83
*181 net84
*182 net85
*183 net86
*184 net87
*185 net88
*186 net89
*187 net9
*188 net90
*189 net91
*190 net92
*191 net93
*192 net94
*193 net95
*194 net96
*195 net97
*196 net98
*197 net99
*198 ANTENNA_u_rp\[0\]\.u_buf_A
*199 ANTENNA_u_rp\[10\]\.u_buf_A
*200 ANTENNA_u_rp\[11\]\.u_buf_A
*201 ANTENNA_u_rp\[12\]\.u_buf_A
*202 ANTENNA_u_rp\[13\]\.u_buf_A
*203 ANTENNA_u_rp\[14\]\.u_buf_A
*204 ANTENNA_u_rp\[15\]\.u_buf_A
*205 ANTENNA_u_rp\[16\]\.u_buf_A
*206 ANTENNA_u_rp\[17\]\.u_buf_A
*207 ANTENNA_u_rp\[18\]\.u_buf_A
*208 ANTENNA_u_rp\[19\]\.u_buf_A
*209 ANTENNA_u_rp\[1\]\.u_buf_A
*210 ANTENNA_u_rp\[20\]\.u_buf_A
*211 ANTENNA_u_rp\[21\]\.u_buf_A
*212 ANTENNA_u_rp\[22\]\.u_buf_A
*213 ANTENNA_u_rp\[23\]\.u_buf_A
*214 ANTENNA_u_rp\[24\]\.u_buf_A
*215 ANTENNA_u_rp\[25\]\.u_buf_A
*216 ANTENNA_u_rp\[26\]\.u_buf_A
*217 ANTENNA_u_rp\[27\]\.u_buf_A
*218 ANTENNA_u_rp\[28\]\.u_buf_A
*219 ANTENNA_u_rp\[29\]\.u_buf_A
*220 ANTENNA_u_rp\[2\]\.u_buf_A
*221 ANTENNA_u_rp\[30\]\.u_buf_A
*222 ANTENNA_u_rp\[31\]\.u_buf_A
*223 ANTENNA_u_rp\[32\]\.u_buf_A
*224 ANTENNA_u_rp\[33\]\.u_buf_A
*225 ANTENNA_u_rp\[34\]\.u_buf_A
*226 ANTENNA_u_rp\[35\]\.u_buf_A
*227 ANTENNA_u_rp\[36\]\.u_buf_A
*228 ANTENNA_u_rp\[37\]\.u_buf_A
*229 ANTENNA_u_rp\[38\]\.u_buf_A
*230 ANTENNA_u_rp\[39\]\.u_buf_A
*231 ANTENNA_u_rp\[3\]\.u_buf_A
*232 ANTENNA_u_rp\[40\]\.u_buf_A
*233 ANTENNA_u_rp\[41\]\.u_buf_A
*234 ANTENNA_u_rp\[4\]\.u_buf_A
*235 ANTENNA_u_rp\[5\]\.u_buf_A
*236 ANTENNA_u_rp\[6\]\.u_buf_A
*237 ANTENNA_u_rp\[7\]\.u_buf_A
*238 ANTENNA_u_rp\[8\]\.u_buf_A
*239 ANTENNA_u_rp\[9\]\.u_buf_A
*240 ANTENNA_wire100_A
*241 ANTENNA_wire101_A
*242 ANTENNA_wire102_A
*243 ANTENNA_wire103_A
*244 ANTENNA_wire104_A
*245 ANTENNA_wire105_A
*246 ANTENNA_wire106_A
*247 ANTENNA_wire107_A
*248 ANTENNA_wire108_A
*249 ANTENNA_wire109_A
*250 ANTENNA_wire10_A
*251 ANTENNA_wire110_A
*252 ANTENNA_wire111_A
*253 ANTENNA_wire11_A
*254 ANTENNA_wire12_A
*255 ANTENNA_wire13_A
*256 ANTENNA_wire14_A
*257 ANTENNA_wire15_A
*258 ANTENNA_wire16_A
*259 ANTENNA_wire18_A
*260 ANTENNA_wire19_A
*261 ANTENNA_wire1_A
*262 ANTENNA_wire20_A
*263 ANTENNA_wire21_A
*264 ANTENNA_wire22_A
*265 ANTENNA_wire23_A
*266 ANTENNA_wire24_A
*267 ANTENNA_wire25_A
*268 ANTENNA_wire26_A
*269 ANTENNA_wire27_A
*270 ANTENNA_wire28_A
*271 ANTENNA_wire29_A
*272 ANTENNA_wire2_A
*273 ANTENNA_wire30_A
*274 ANTENNA_wire31_A
*275 ANTENNA_wire32_A
*276 ANTENNA_wire33_A
*277 ANTENNA_wire34_A
*278 ANTENNA_wire35_A
*279 ANTENNA_wire36_A
*280 ANTENNA_wire37_A
*281 ANTENNA_wire38_A
*282 ANTENNA_wire39_A
*283 ANTENNA_wire3_A
*284 ANTENNA_wire40_A
*285 ANTENNA_wire41_A
*286 ANTENNA_wire42_A
*287 ANTENNA_wire43_A
*288 ANTENNA_wire44_A
*289 ANTENNA_wire45_A
*290 ANTENNA_wire46_A
*291 ANTENNA_wire47_A
*292 ANTENNA_wire48_A
*293 ANTENNA_wire49_A
*294 ANTENNA_wire4_A
*295 ANTENNA_wire50_A
*296 ANTENNA_wire51_A
*297 ANTENNA_wire52_A
*298 ANTENNA_wire53_A
*299 ANTENNA_wire54_A
*300 ANTENNA_wire55_A
*301 ANTENNA_wire56_A
*302 ANTENNA_wire57_A
*303 ANTENNA_wire58_A
*304 ANTENNA_wire59_A
*305 ANTENNA_wire5_A
*306 ANTENNA_wire60_A
*307 ANTENNA_wire61_A
*308 ANTENNA_wire62_A
*309 ANTENNA_wire63_A
*310 ANTENNA_wire64_A
*311 ANTENNA_wire65_A
*312 ANTENNA_wire66_A
*313 ANTENNA_wire67_A
*314 ANTENNA_wire68_A
*315 ANTENNA_wire69_A
*316 ANTENNA_wire6_A
*317 ANTENNA_wire70_A
*318 ANTENNA_wire71_A
*319 ANTENNA_wire72_A
*320 ANTENNA_wire73_A
*321 ANTENNA_wire74_A
*322 ANTENNA_wire75_A
*323 ANTENNA_wire76_A
*324 ANTENNA_wire77_A
*325 ANTENNA_wire78_A
*326 ANTENNA_wire79_A
*327 ANTENNA_wire80_A
*328 ANTENNA_wire81_A
*329 ANTENNA_wire82_A
*330 ANTENNA_wire83_A
*331 ANTENNA_wire84_A
*332 ANTENNA_wire85_A
*333 ANTENNA_wire86_A
*334 ANTENNA_wire87_A
*335 ANTENNA_wire88_A
*336 ANTENNA_wire89_A
*337 ANTENNA_wire8_A
*338 ANTENNA_wire90_A
*339 ANTENNA_wire91_A
*340 ANTENNA_wire92_A
*341 ANTENNA_wire93_A
*342 ANTENNA_wire94_A
*343 ANTENNA_wire95_A
*344 ANTENNA_wire96_A
*345 ANTENNA_wire97_A
*346 ANTENNA_wire98_A
*347 ANTENNA_wire99_A
*348 ANTENNA_wire9_A
*349 FILLER_0_1005
*350 FILLER_0_1009
*351 FILLER_0_1019
*352 FILLER_0_1031
*353 FILLER_0_1035
*354 FILLER_0_1037
*355 FILLER_0_1049
*356 FILLER_0_1061
*357 FILLER_0_1065
*358 FILLER_0_1077
*359 FILLER_0_1089
*360 FILLER_0_109
*361 FILLER_0_1093
*362 FILLER_0_11
*363 FILLER_0_1105
*364 FILLER_0_1117
*365 FILLER_0_1121
*366 FILLER_0_113
*367 FILLER_0_1133
*368 FILLER_0_1145
*369 FILLER_0_1149
*370 FILLER_0_1161
*371 FILLER_0_1173
*372 FILLER_0_1177
*373 FILLER_0_1187
*374 FILLER_0_1199
*375 FILLER_0_1203
*376 FILLER_0_1205
*377 FILLER_0_1217
*378 FILLER_0_1229
*379 FILLER_0_1233
*380 FILLER_0_1245
*381 FILLER_0_125
*382 FILLER_0_1257
*383 FILLER_0_1261
*384 FILLER_0_1273
*385 FILLER_0_1285
*386 FILLER_0_1289
*387 FILLER_0_1301
*388 FILLER_0_1313
*389 FILLER_0_1317
*390 FILLER_0_1329
*391 FILLER_0_1341
*392 FILLER_0_1345
*393 FILLER_0_1355
*394 FILLER_0_1367
*395 FILLER_0_137
*396 FILLER_0_1371
*397 FILLER_0_1373
*398 FILLER_0_1385
*399 FILLER_0_1397
*400 FILLER_0_1401
*401 FILLER_0_141
*402 FILLER_0_1413
*403 FILLER_0_1425
*404 FILLER_0_1429
*405 FILLER_0_1441
*406 FILLER_0_1453
*407 FILLER_0_1457
*408 FILLER_0_1469
*409 FILLER_0_1481
*410 FILLER_0_1485
*411 FILLER_0_1497
*412 FILLER_0_1509
*413 FILLER_0_1513
*414 FILLER_0_1523
*415 FILLER_0_153
*416 FILLER_0_1535
*417 FILLER_0_1539
*418 FILLER_0_1541
*419 FILLER_0_1553
*420 FILLER_0_1565
*421 FILLER_0_1569
*422 FILLER_0_1581
*423 FILLER_0_1593
*424 FILLER_0_1597
*425 FILLER_0_1609
*426 FILLER_0_1621
*427 FILLER_0_1625
*428 FILLER_0_1637
*429 FILLER_0_1649
*430 FILLER_0_165
*431 FILLER_0_1653
*432 FILLER_0_1665
*433 FILLER_0_1677
*434 FILLER_0_1681
*435 FILLER_0_169
*436 FILLER_0_1691
*437 FILLER_0_1703
*438 FILLER_0_1707
*439 FILLER_0_1709
*440 FILLER_0_1721
*441 FILLER_0_1733
*442 FILLER_0_1737
*443 FILLER_0_1749
*444 FILLER_0_1761
*445 FILLER_0_1765
*446 FILLER_0_1777
*447 FILLER_0_1789
*448 FILLER_0_179
*449 FILLER_0_1793
*450 FILLER_0_1805
*451 FILLER_0_1817
*452 FILLER_0_1821
*453 FILLER_0_1833
*454 FILLER_0_1845
*455 FILLER_0_1849
*456 FILLER_0_185
*457 FILLER_0_1859
*458 FILLER_0_1871
*459 FILLER_0_1875
*460 FILLER_0_1877
*461 FILLER_0_1889
*462 FILLER_0_1901
*463 FILLER_0_1905
*464 FILLER_0_1917
*465 FILLER_0_1929
*466 FILLER_0_193
*467 FILLER_0_1933
*468 FILLER_0_1945
*469 FILLER_0_1957
*470 FILLER_0_1961
*471 FILLER_0_197
*472 FILLER_0_1973
*473 FILLER_0_1985
*474 FILLER_0_1989
*475 FILLER_0_2001
*476 FILLER_0_2013
*477 FILLER_0_2017
*478 FILLER_0_2027
*479 FILLER_0_2039
*480 FILLER_0_2043
*481 FILLER_0_2045
*482 FILLER_0_2057
*483 FILLER_0_2069
*484 FILLER_0_2073
*485 FILLER_0_2085
*486 FILLER_0_209
*487 FILLER_0_2097
*488 FILLER_0_2101
*489 FILLER_0_2113
*490 FILLER_0_2125
*491 FILLER_0_2129
*492 FILLER_0_2141
*493 FILLER_0_2153
*494 FILLER_0_2157
*495 FILLER_0_2169
*496 FILLER_0_2181
*497 FILLER_0_2185
*498 FILLER_0_2195
*499 FILLER_0_2207
*500 FILLER_0_221
*501 FILLER_0_2211
*502 FILLER_0_2213
*503 FILLER_0_2225
*504 FILLER_0_2237
*505 FILLER_0_2241
*506 FILLER_0_225
*507 FILLER_0_2253
*508 FILLER_0_2265
*509 FILLER_0_2269
*510 FILLER_0_2281
*511 FILLER_0_2293
*512 FILLER_0_2297
*513 FILLER_0_23
*514 FILLER_0_2309
*515 FILLER_0_2321
*516 FILLER_0_2325
*517 FILLER_0_2337
*518 FILLER_0_2349
*519 FILLER_0_2353
*520 FILLER_0_2363
*521 FILLER_0_237
*522 FILLER_0_2375
*523 FILLER_0_2379
*524 FILLER_0_2381
*525 FILLER_0_2393
*526 FILLER_0_2405
*527 FILLER_0_2409
*528 FILLER_0_2421
*529 FILLER_0_2433
*530 FILLER_0_2437
*531 FILLER_0_2449
*532 FILLER_0_2461
*533 FILLER_0_2465
*534 FILLER_0_2477
*535 FILLER_0_2489
*536 FILLER_0_249
*537 FILLER_0_2493
*538 FILLER_0_2505
*539 FILLER_0_2517
*540 FILLER_0_2521
*541 FILLER_0_253
*542 FILLER_0_2531
*543 FILLER_0_2543
*544 FILLER_0_2547
*545 FILLER_0_2549
*546 FILLER_0_2561
*547 FILLER_0_2573
*548 FILLER_0_2577
*549 FILLER_0_2589
*550 FILLER_0_2601
*551 FILLER_0_2605
*552 FILLER_0_2617
*553 FILLER_0_2629
*554 FILLER_0_2633
*555 FILLER_0_2645
*556 FILLER_0_265
*557 FILLER_0_2657
*558 FILLER_0_2661
*559 FILLER_0_2673
*560 FILLER_0_2685
*561 FILLER_0_2689
*562 FILLER_0_2699
*563 FILLER_0_27
*564 FILLER_0_2711
*565 FILLER_0_2715
*566 FILLER_0_2717
*567 FILLER_0_2729
*568 FILLER_0_2741
*569 FILLER_0_2745
*570 FILLER_0_2757
*571 FILLER_0_2769
*572 FILLER_0_277
*573 FILLER_0_2773
*574 FILLER_0_2785
*575 FILLER_0_2797
*576 FILLER_0_2801
*577 FILLER_0_281
*578 FILLER_0_2813
*579 FILLER_0_2825
*580 FILLER_0_2829
*581 FILLER_0_2841
*582 FILLER_0_2853
*583 FILLER_0_2857
*584 FILLER_0_2867
*585 FILLER_0_2879
*586 FILLER_0_2883
*587 FILLER_0_2885
*588 FILLER_0_2897
*589 FILLER_0_29
*590 FILLER_0_2909
*591 FILLER_0_2913
*592 FILLER_0_2925
*593 FILLER_0_293
*594 FILLER_0_2937
*595 FILLER_0_2941
*596 FILLER_0_2953
*597 FILLER_0_2965
*598 FILLER_0_2969
*599 FILLER_0_2981
*600 FILLER_0_2993
*601 FILLER_0_2997
*602 FILLER_0_3
*603 FILLER_0_3009
*604 FILLER_0_3021
*605 FILLER_0_3025
*606 FILLER_0_3035
*607 FILLER_0_3047
*608 FILLER_0_305
*609 FILLER_0_3051
*610 FILLER_0_3053
*611 FILLER_0_3065
*612 FILLER_0_3077
*613 FILLER_0_3081
*614 FILLER_0_309
*615 FILLER_0_3093
*616 FILLER_0_3105
*617 FILLER_0_3109
*618 FILLER_0_3121
*619 FILLER_0_3133
*620 FILLER_0_3137
*621 FILLER_0_3149
*622 FILLER_0_3161
*623 FILLER_0_3165
*624 FILLER_0_3177
*625 FILLER_0_3189
*626 FILLER_0_3193
*627 FILLER_0_3203
*628 FILLER_0_321
*629 FILLER_0_3215
*630 FILLER_0_3219
*631 FILLER_0_3221
*632 FILLER_0_3233
*633 FILLER_0_3245
*634 FILLER_0_3249
*635 FILLER_0_3261
*636 FILLER_0_3273
*637 FILLER_0_3277
*638 FILLER_0_3289
*639 FILLER_0_3301
*640 FILLER_0_3305
*641 FILLER_0_3317
*642 FILLER_0_3329
*643 FILLER_0_333
*644 FILLER_0_3333
*645 FILLER_0_3345
*646 FILLER_0_3357
*647 FILLER_0_3361
*648 FILLER_0_337
*649 FILLER_0_3371
*650 FILLER_0_3383
*651 FILLER_0_3387
*652 FILLER_0_3389
*653 FILLER_0_3401
*654 FILLER_0_3413
*655 FILLER_0_3417
*656 FILLER_0_3429
*657 FILLER_0_3441
*658 FILLER_0_3445
*659 FILLER_0_3457
*660 FILLER_0_3469
*661 FILLER_0_347
*662 FILLER_0_3473
*663 FILLER_0_3485
*664 FILLER_0_3497
*665 FILLER_0_3501
*666 FILLER_0_3513
*667 FILLER_0_3525
*668 FILLER_0_3529
*669 FILLER_0_3539
*670 FILLER_0_3551
*671 FILLER_0_3555
*672 FILLER_0_3557
*673 FILLER_0_3569
*674 FILLER_0_3581
*675 FILLER_0_3585
*676 FILLER_0_359
*677 FILLER_0_3597
*678 FILLER_0_3609
*679 FILLER_0_3613
*680 FILLER_0_3625
*681 FILLER_0_363
*682 FILLER_0_3637
*683 FILLER_0_3641
*684 FILLER_0_365
*685 FILLER_0_3653
*686 FILLER_0_3665
*687 FILLER_0_3669
*688 FILLER_0_3681
*689 FILLER_0_3693
*690 FILLER_0_3697
*691 FILLER_0_3707
*692 FILLER_0_3719
*693 FILLER_0_3723
*694 FILLER_0_3725
*695 FILLER_0_3737
*696 FILLER_0_3749
*697 FILLER_0_3753
*698 FILLER_0_3765
*699 FILLER_0_377
*700 FILLER_0_3777
*701 FILLER_0_3781
*702 FILLER_0_3793
*703 FILLER_0_3805
*704 FILLER_0_3809
*705 FILLER_0_3821
*706 FILLER_0_3833
*707 FILLER_0_3837
*708 FILLER_0_3849
*709 FILLER_0_3861
*710 FILLER_0_3865
*711 FILLER_0_3875
*712 FILLER_0_3887
*713 FILLER_0_389
*714 FILLER_0_3891
*715 FILLER_0_3893
*716 FILLER_0_3905
*717 FILLER_0_3917
*718 FILLER_0_3921
*719 FILLER_0_393
*720 FILLER_0_3933
*721 FILLER_0_3945
*722 FILLER_0_3949
*723 FILLER_0_3961
*724 FILLER_0_3973
*725 FILLER_0_3977
*726 FILLER_0_3989
*727 FILLER_0_4001
*728 FILLER_0_4005
*729 FILLER_0_4017
*730 FILLER_0_4029
*731 FILLER_0_4033
*732 FILLER_0_4043
*733 FILLER_0_405
*734 FILLER_0_4055
*735 FILLER_0_4059
*736 FILLER_0_4061
*737 FILLER_0_4073
*738 FILLER_0_4085
*739 FILLER_0_4089
*740 FILLER_0_41
*741 FILLER_0_4101
*742 FILLER_0_4113
*743 FILLER_0_4117
*744 FILLER_0_4129
*745 FILLER_0_4141
*746 FILLER_0_4145
*747 FILLER_0_4157
*748 FILLER_0_4169
*749 FILLER_0_417
*750 FILLER_0_4173
*751 FILLER_0_4185
*752 FILLER_0_4197
*753 FILLER_0_4201
*754 FILLER_0_421
*755 FILLER_0_4211
*756 FILLER_0_4223
*757 FILLER_0_4227
*758 FILLER_0_4229
*759 FILLER_0_4241
*760 FILLER_0_4253
*761 FILLER_0_4257
*762 FILLER_0_4269
*763 FILLER_0_4281
*764 FILLER_0_4285
*765 FILLER_0_4297
*766 FILLER_0_4309
*767 FILLER_0_4313
*768 FILLER_0_4325
*769 FILLER_0_433
*770 FILLER_0_4337
*771 FILLER_0_4341
*772 FILLER_0_4353
*773 FILLER_0_4361
*774 FILLER_0_4366
*775 FILLER_0_4369
*776 FILLER_0_4379
*777 FILLER_0_4391
*778 FILLER_0_4395
*779 FILLER_0_4397
*780 FILLER_0_4409
*781 FILLER_0_4421
*782 FILLER_0_4425
*783 FILLER_0_4437
*784 FILLER_0_4449
*785 FILLER_0_445
*786 FILLER_0_4453
*787 FILLER_0_4465
*788 FILLER_0_4477
*789 FILLER_0_4481
*790 FILLER_0_449
*791 FILLER_0_4493
*792 FILLER_0_4505
*793 FILLER_0_4509
*794 FILLER_0_4521
*795 FILLER_0_4533
*796 FILLER_0_4537
*797 FILLER_0_4543
*798 FILLER_0_4547
*799 FILLER_0_4553
*800 FILLER_0_4561
*801 FILLER_0_4565
*802 FILLER_0_4577
*803 FILLER_0_4589
*804 FILLER_0_4593
*805 FILLER_0_4605
*806 FILLER_0_461
*807 FILLER_0_4617
*808 FILLER_0_4621
*809 FILLER_0_4633
*810 FILLER_0_4645
*811 FILLER_0_4649
*812 FILLER_0_4661
*813 FILLER_0_4673
*814 FILLER_0_4677
*815 FILLER_0_4689
*816 FILLER_0_4701
*817 FILLER_0_4705
*818 FILLER_0_4715
*819 FILLER_0_4727
*820 FILLER_0_473
*821 FILLER_0_4731
*822 FILLER_0_4733
*823 FILLER_0_4745
*824 FILLER_0_4757
*825 FILLER_0_4761
*826 FILLER_0_477
*827 FILLER_0_4773
*828 FILLER_0_4785
*829 FILLER_0_4789
*830 FILLER_0_4801
*831 FILLER_0_4813
*832 FILLER_0_4817
*833 FILLER_0_4829
*834 FILLER_0_4841
*835 FILLER_0_4845
*836 FILLER_0_4857
*837 FILLER_0_4869
*838 FILLER_0_4873
*839 FILLER_0_4883
*840 FILLER_0_489
*841 FILLER_0_4895
*842 FILLER_0_4899
*843 FILLER_0_4901
*844 FILLER_0_4913
*845 FILLER_0_4925
*846 FILLER_0_4929
*847 FILLER_0_4941
*848 FILLER_0_4953
*849 FILLER_0_4957
*850 FILLER_0_4969
*851 FILLER_0_4981
*852 FILLER_0_4985
*853 FILLER_0_4997
*854 FILLER_0_5009
*855 FILLER_0_501
*856 FILLER_0_5013
*857 FILLER_0_5025
*858 FILLER_0_5037
*859 FILLER_0_5041
*860 FILLER_0_505
*861 FILLER_0_5051
*862 FILLER_0_5063
*863 FILLER_0_5067
*864 FILLER_0_5069
*865 FILLER_0_5081
*866 FILLER_0_5093
*867 FILLER_0_5097
*868 FILLER_0_5109
*869 FILLER_0_5121
*870 FILLER_0_5125
*871 FILLER_0_5137
*872 FILLER_0_5149
*873 FILLER_0_515
*874 FILLER_0_5153
*875 FILLER_0_5165
*876 FILLER_0_5177
*877 FILLER_0_5181
*878 FILLER_0_5193
*879 FILLER_0_5205
*880 FILLER_0_5209
*881 FILLER_0_5219
*882 FILLER_0_5231
*883 FILLER_0_5235
*884 FILLER_0_5237
*885 FILLER_0_5249
*886 FILLER_0_5261
*887 FILLER_0_5265
*888 FILLER_0_527
*889 FILLER_0_5277
*890 FILLER_0_5289
*891 FILLER_0_5293
*892 FILLER_0_53
*893 FILLER_0_5305
*894 FILLER_0_531
*895 FILLER_0_5317
*896 FILLER_0_5321
*897 FILLER_0_533
*898 FILLER_0_5333
*899 FILLER_0_5345
*900 FILLER_0_5349
*901 FILLER_0_5361
*902 FILLER_0_5373
*903 FILLER_0_5377
*904 FILLER_0_5387
*905 FILLER_0_5399
*906 FILLER_0_5403
*907 FILLER_0_5405
*908 FILLER_0_5417
*909 FILLER_0_5429
*910 FILLER_0_5433
*911 FILLER_0_5445
*912 FILLER_0_545
*913 FILLER_0_5457
*914 FILLER_0_5461
*915 FILLER_0_5473
*916 FILLER_0_5485
*917 FILLER_0_5489
*918 FILLER_0_5501
*919 FILLER_0_5513
*920 FILLER_0_5517
*921 FILLER_0_5529
*922 FILLER_0_5541
*923 FILLER_0_5545
*924 FILLER_0_5551
*925 FILLER_0_5555
*926 FILLER_0_5561
*927 FILLER_0_5569
*928 FILLER_0_557
*929 FILLER_0_5573
*930 FILLER_0_5585
*931 FILLER_0_5597
*932 FILLER_0_5601
*933 FILLER_0_561
*934 FILLER_0_5613
*935 FILLER_0_5625
*936 FILLER_0_5629
*937 FILLER_0_5641
*938 FILLER_0_5653
*939 FILLER_0_5657
*940 FILLER_0_5669
*941 FILLER_0_5681
*942 FILLER_0_5685
*943 FILLER_0_5697
*944 FILLER_0_57
*945 FILLER_0_5709
*946 FILLER_0_5713
*947 FILLER_0_5723
*948 FILLER_0_573
*949 FILLER_0_5735
*950 FILLER_0_5739
*951 FILLER_0_5741
*952 FILLER_0_5753
*953 FILLER_0_5765
*954 FILLER_0_5769
*955 FILLER_0_5781
*956 FILLER_0_5793
*957 FILLER_0_5797
*958 FILLER_0_5809
*959 FILLER_0_5821
*960 FILLER_0_5825
*961 FILLER_0_5837
*962 FILLER_0_5849
*963 FILLER_0_585
*964 FILLER_0_5853
*965 FILLER_0_5865
*966 FILLER_0_5877
*967 FILLER_0_5881
*968 FILLER_0_589
*969 FILLER_0_5891
*970 FILLER_0_5903
*971 FILLER_0_5907
*972 FILLER_0_5909
*973 FILLER_0_5921
*974 FILLER_0_5933
*975 FILLER_0_5937
*976 FILLER_0_5949
*977 FILLER_0_5961
*978 FILLER_0_5965
*979 FILLER_0_5977
*980 FILLER_0_5989
*981 FILLER_0_5993
*982 FILLER_0_6005
*983 FILLER_0_601
*984 FILLER_0_6017
*985 FILLER_0_6021
*986 FILLER_0_6033
*987 FILLER_0_6045
*988 FILLER_0_6049
*989 FILLER_0_6059
*990 FILLER_0_6071
*991 FILLER_0_6075
*992 FILLER_0_6077
*993 FILLER_0_6089
*994 FILLER_0_6101
*995 FILLER_0_6105
*996 FILLER_0_6117
*997 FILLER_0_6129
*998 FILLER_0_613
*999 FILLER_0_6133
*1000 FILLER_0_6145
*1001 FILLER_0_6157
*1002 FILLER_0_6161
*1003 FILLER_0_617
*1004 FILLER_0_6173
*1005 FILLER_0_6185
*1006 FILLER_0_6189
*1007 FILLER_0_6201
*1008 FILLER_0_6213
*1009 FILLER_0_6217
*1010 FILLER_0_6227
*1011 FILLER_0_6239
*1012 FILLER_0_6243
*1013 FILLER_0_6245
*1014 FILLER_0_6257
*1015 FILLER_0_6269
*1016 FILLER_0_6273
*1017 FILLER_0_6285
*1018 FILLER_0_629
*1019 FILLER_0_6297
*1020 FILLER_0_6301
*1021 FILLER_0_6313
*1022 FILLER_0_6325
*1023 FILLER_0_6329
*1024 FILLER_0_6341
*1025 FILLER_0_6353
*1026 FILLER_0_6357
*1027 FILLER_0_6369
*1028 FILLER_0_6381
*1029 FILLER_0_6385
*1030 FILLER_0_6395
*1031 FILLER_0_6407
*1032 FILLER_0_641
*1033 FILLER_0_6411
*1034 FILLER_0_6413
*1035 FILLER_0_6425
*1036 FILLER_0_6437
*1037 FILLER_0_6441
*1038 FILLER_0_645
*1039 FILLER_0_6453
*1040 FILLER_0_6465
*1041 FILLER_0_6469
*1042 FILLER_0_6481
*1043 FILLER_0_6493
*1044 FILLER_0_6497
*1045 FILLER_0_6509
*1046 FILLER_0_6521
*1047 FILLER_0_6525
*1048 FILLER_0_6537
*1049 FILLER_0_6549
*1050 FILLER_0_6553
*1051 FILLER_0_6559
*1052 FILLER_0_6563
*1053 FILLER_0_6569
*1054 FILLER_0_657
*1055 FILLER_0_6577
*1056 FILLER_0_6581
*1057 FILLER_0_6593
*1058 FILLER_0_6605
*1059 FILLER_0_6609
*1060 FILLER_0_6621
*1061 FILLER_0_6633
*1062 FILLER_0_6637
*1063 FILLER_0_6649
*1064 FILLER_0_6661
*1065 FILLER_0_6665
*1066 FILLER_0_6677
*1067 FILLER_0_6689
*1068 FILLER_0_669
*1069 FILLER_0_6693
*1070 FILLER_0_6705
*1071 FILLER_0_6717
*1072 FILLER_0_6721
*1073 FILLER_0_673
*1074 FILLER_0_6731
*1075 FILLER_0_6743
*1076 FILLER_0_6747
*1077 FILLER_0_6749
*1078 FILLER_0_6761
*1079 FILLER_0_6773
*1080 FILLER_0_6777
*1081 FILLER_0_6789
*1082 FILLER_0_6801
*1083 FILLER_0_6805
*1084 FILLER_0_6817
*1085 FILLER_0_6829
*1086 FILLER_0_683
*1087 FILLER_0_6833
*1088 FILLER_0_6845
*1089 FILLER_0_6857
*1090 FILLER_0_6861
*1091 FILLER_0_6873
*1092 FILLER_0_6885
*1093 FILLER_0_6889
*1094 FILLER_0_6899
*1095 FILLER_0_69
*1096 FILLER_0_6911
*1097 FILLER_0_6915
*1098 FILLER_0_6917
*1099 FILLER_0_6929
*1100 FILLER_0_6941
*1101 FILLER_0_6945
*1102 FILLER_0_695
*1103 FILLER_0_6957
*1104 FILLER_0_6969
*1105 FILLER_0_6973
*1106 FILLER_0_6985
*1107 FILLER_0_699
*1108 FILLER_0_6997
*1109 FILLER_0_7001
*1110 FILLER_0_701
*1111 FILLER_0_7013
*1112 FILLER_0_7025
*1113 FILLER_0_7029
*1114 FILLER_0_7037
*1115 FILLER_0_713
*1116 FILLER_0_725
*1117 FILLER_0_729
*1118 FILLER_0_741
*1119 FILLER_0_753
*1120 FILLER_0_757
*1121 FILLER_0_769
*1122 FILLER_0_781
*1123 FILLER_0_785
*1124 FILLER_0_797
*1125 FILLER_0_809
*1126 FILLER_0_81
*1127 FILLER_0_813
*1128 FILLER_0_825
*1129 FILLER_0_837
*1130 FILLER_0_841
*1131 FILLER_0_85
*1132 FILLER_0_851
*1133 FILLER_0_863
*1134 FILLER_0_867
*1135 FILLER_0_869
*1136 FILLER_0_881
*1137 FILLER_0_893
*1138 FILLER_0_897
*1139 FILLER_0_909
*1140 FILLER_0_921
*1141 FILLER_0_925
*1142 FILLER_0_937
*1143 FILLER_0_949
*1144 FILLER_0_953
*1145 FILLER_0_965
*1146 FILLER_0_97
*1147 FILLER_0_977
*1148 FILLER_0_981
*1149 FILLER_0_993
*1150 FILLER_1_1001
*1151 FILLER_1_1007
*1152 FILLER_1_1009
*1153 FILLER_1_1015
*1154 FILLER_1_1027
*1155 FILLER_1_1039
*1156 FILLER_1_105
*1157 FILLER_1_1051
*1158 FILLER_1_1063
*1159 FILLER_1_1065
*1160 FILLER_1_1077
*1161 FILLER_1_1089
*1162 FILLER_1_1101
*1163 FILLER_1_111
*1164 FILLER_1_1113
*1165 FILLER_1_1119
*1166 FILLER_1_1121
*1167 FILLER_1_113
*1168 FILLER_1_1133
*1169 FILLER_1_1145
*1170 FILLER_1_1157
*1171 FILLER_1_1169
*1172 FILLER_1_1175
*1173 FILLER_1_1177
*1174 FILLER_1_1183
*1175 FILLER_1_1195
*1176 FILLER_1_1207
*1177 FILLER_1_1219
*1178 FILLER_1_1231
*1179 FILLER_1_1233
*1180 FILLER_1_1245
*1181 FILLER_1_125
*1182 FILLER_1_1257
*1183 FILLER_1_1269
*1184 FILLER_1_1281
*1185 FILLER_1_1287
*1186 FILLER_1_1289
*1187 FILLER_1_1301
*1188 FILLER_1_1313
*1189 FILLER_1_1325
*1190 FILLER_1_1337
*1191 FILLER_1_1343
*1192 FILLER_1_1345
*1193 FILLER_1_1351
*1194 FILLER_1_1363
*1195 FILLER_1_137
*1196 FILLER_1_1375
*1197 FILLER_1_1387
*1198 FILLER_1_1399
*1199 FILLER_1_1401
*1200 FILLER_1_1413
*1201 FILLER_1_1425
*1202 FILLER_1_1437
*1203 FILLER_1_1449
*1204 FILLER_1_1455
*1205 FILLER_1_1457
*1206 FILLER_1_1469
*1207 FILLER_1_1481
*1208 FILLER_1_149
*1209 FILLER_1_1493
*1210 FILLER_1_1505
*1211 FILLER_1_1511
*1212 FILLER_1_1513
*1213 FILLER_1_1519
*1214 FILLER_1_1531
*1215 FILLER_1_1543
*1216 FILLER_1_1555
*1217 FILLER_1_1567
*1218 FILLER_1_1569
*1219 FILLER_1_1581
*1220 FILLER_1_1593
*1221 FILLER_1_1605
*1222 FILLER_1_161
*1223 FILLER_1_1617
*1224 FILLER_1_1623
*1225 FILLER_1_1625
*1226 FILLER_1_1637
*1227 FILLER_1_1649
*1228 FILLER_1_1661
*1229 FILLER_1_167
*1230 FILLER_1_1673
*1231 FILLER_1_1679
*1232 FILLER_1_1681
*1233 FILLER_1_1687
*1234 FILLER_1_169
*1235 FILLER_1_1699
*1236 FILLER_1_1711
*1237 FILLER_1_1723
*1238 FILLER_1_1735
*1239 FILLER_1_1737
*1240 FILLER_1_1749
*1241 FILLER_1_1761
*1242 FILLER_1_1773
*1243 FILLER_1_1785
*1244 FILLER_1_1791
*1245 FILLER_1_1793
*1246 FILLER_1_1805
*1247 FILLER_1_181
*1248 FILLER_1_1817
*1249 FILLER_1_1829
*1250 FILLER_1_1841
*1251 FILLER_1_1847
*1252 FILLER_1_1849
*1253 FILLER_1_1855
*1254 FILLER_1_1867
*1255 FILLER_1_1879
*1256 FILLER_1_1891
*1257 FILLER_1_19
*1258 FILLER_1_1903
*1259 FILLER_1_1905
*1260 FILLER_1_1917
*1261 FILLER_1_1929
*1262 FILLER_1_193
*1263 FILLER_1_1941
*1264 FILLER_1_1953
*1265 FILLER_1_1959
*1266 FILLER_1_1961
*1267 FILLER_1_1973
*1268 FILLER_1_1985
*1269 FILLER_1_1997
*1270 FILLER_1_2009
*1271 FILLER_1_2015
*1272 FILLER_1_2017
*1273 FILLER_1_2021
*1274 FILLER_1_2033
*1275 FILLER_1_2045
*1276 FILLER_1_205
*1277 FILLER_1_2057
*1278 FILLER_1_2069
*1279 FILLER_1_2073
*1280 FILLER_1_2085
*1281 FILLER_1_2097
*1282 FILLER_1_2109
*1283 FILLER_1_2121
*1284 FILLER_1_2127
*1285 FILLER_1_2129
*1286 FILLER_1_2141
*1287 FILLER_1_2153
*1288 FILLER_1_2165
*1289 FILLER_1_217
*1290 FILLER_1_2177
*1291 FILLER_1_2183
*1292 FILLER_1_2185
*1293 FILLER_1_2191
*1294 FILLER_1_2203
*1295 FILLER_1_2215
*1296 FILLER_1_2227
*1297 FILLER_1_223
*1298 FILLER_1_2239
*1299 FILLER_1_2241
*1300 FILLER_1_225
*1301 FILLER_1_2253
*1302 FILLER_1_2265
*1303 FILLER_1_2277
*1304 FILLER_1_2289
*1305 FILLER_1_2295
*1306 FILLER_1_2297
*1307 FILLER_1_2309
*1308 FILLER_1_2321
*1309 FILLER_1_2333
*1310 FILLER_1_2345
*1311 FILLER_1_2351
*1312 FILLER_1_2353
*1313 FILLER_1_2359
*1314 FILLER_1_237
*1315 FILLER_1_2371
*1316 FILLER_1_2383
*1317 FILLER_1_2395
*1318 FILLER_1_2407
*1319 FILLER_1_2409
*1320 FILLER_1_2421
*1321 FILLER_1_2433
*1322 FILLER_1_2445
*1323 FILLER_1_2457
*1324 FILLER_1_2463
*1325 FILLER_1_2465
*1326 FILLER_1_2477
*1327 FILLER_1_2489
*1328 FILLER_1_249
*1329 FILLER_1_2501
*1330 FILLER_1_2513
*1331 FILLER_1_2519
*1332 FILLER_1_2521
*1333 FILLER_1_2527
*1334 FILLER_1_2539
*1335 FILLER_1_2551
*1336 FILLER_1_2563
*1337 FILLER_1_2575
*1338 FILLER_1_2577
*1339 FILLER_1_2589
*1340 FILLER_1_2601
*1341 FILLER_1_261
*1342 FILLER_1_2613
*1343 FILLER_1_2625
*1344 FILLER_1_2631
*1345 FILLER_1_2633
*1346 FILLER_1_2645
*1347 FILLER_1_2657
*1348 FILLER_1_2669
*1349 FILLER_1_2681
*1350 FILLER_1_2687
*1351 FILLER_1_2689
*1352 FILLER_1_2695
*1353 FILLER_1_2707
*1354 FILLER_1_2719
*1355 FILLER_1_273
*1356 FILLER_1_2731
*1357 FILLER_1_2743
*1358 FILLER_1_2745
*1359 FILLER_1_2757
*1360 FILLER_1_2769
*1361 FILLER_1_2781
*1362 FILLER_1_279
*1363 FILLER_1_2793
*1364 FILLER_1_2799
*1365 FILLER_1_2801
*1366 FILLER_1_281
*1367 FILLER_1_2813
*1368 FILLER_1_2825
*1369 FILLER_1_2837
*1370 FILLER_1_2849
*1371 FILLER_1_2855
*1372 FILLER_1_2857
*1373 FILLER_1_2863
*1374 FILLER_1_2875
*1375 FILLER_1_2887
*1376 FILLER_1_2899
*1377 FILLER_1_2911
*1378 FILLER_1_2913
*1379 FILLER_1_2925
*1380 FILLER_1_293
*1381 FILLER_1_2937
*1382 FILLER_1_2949
*1383 FILLER_1_2961
*1384 FILLER_1_2967
*1385 FILLER_1_2969
*1386 FILLER_1_2981
*1387 FILLER_1_2993
*1388 FILLER_1_3
*1389 FILLER_1_3005
*1390 FILLER_1_3017
*1391 FILLER_1_3023
*1392 FILLER_1_3025
*1393 FILLER_1_3029
*1394 FILLER_1_3041
*1395 FILLER_1_305
*1396 FILLER_1_3053
*1397 FILLER_1_3065
*1398 FILLER_1_3077
*1399 FILLER_1_3081
*1400 FILLER_1_3093
*1401 FILLER_1_31
*1402 FILLER_1_3105
*1403 FILLER_1_3117
*1404 FILLER_1_3129
*1405 FILLER_1_3135
*1406 FILLER_1_3137
*1407 FILLER_1_3149
*1408 FILLER_1_3161
*1409 FILLER_1_317
*1410 FILLER_1_3173
*1411 FILLER_1_3185
*1412 FILLER_1_3191
*1413 FILLER_1_3193
*1414 FILLER_1_3199
*1415 FILLER_1_3211
*1416 FILLER_1_3223
*1417 FILLER_1_3235
*1418 FILLER_1_3247
*1419 FILLER_1_3249
*1420 FILLER_1_3261
*1421 FILLER_1_3273
*1422 FILLER_1_3285
*1423 FILLER_1_329
*1424 FILLER_1_3293
*1425 FILLER_1_3300
*1426 FILLER_1_3305
*1427 FILLER_1_3309
*1428 FILLER_1_3321
*1429 FILLER_1_3333
*1430 FILLER_1_3345
*1431 FILLER_1_335
*1432 FILLER_1_3357
*1433 FILLER_1_3361
*1434 FILLER_1_3367
*1435 FILLER_1_337
*1436 FILLER_1_3379
*1437 FILLER_1_3391
*1438 FILLER_1_3403
*1439 FILLER_1_3415
*1440 FILLER_1_3417
*1441 FILLER_1_3429
*1442 FILLER_1_343
*1443 FILLER_1_3441
*1444 FILLER_1_3453
*1445 FILLER_1_3465
*1446 FILLER_1_3471
*1447 FILLER_1_3473
*1448 FILLER_1_3485
*1449 FILLER_1_3497
*1450 FILLER_1_3509
*1451 FILLER_1_3521
*1452 FILLER_1_3527
*1453 FILLER_1_3529
*1454 FILLER_1_3535
*1455 FILLER_1_3547
*1456 FILLER_1_355
*1457 FILLER_1_3559
*1458 FILLER_1_3571
*1459 FILLER_1_3583
*1460 FILLER_1_3585
*1461 FILLER_1_3597
*1462 FILLER_1_3609
*1463 FILLER_1_3621
*1464 FILLER_1_3633
*1465 FILLER_1_3639
*1466 FILLER_1_3641
*1467 FILLER_1_3653
*1468 FILLER_1_3665
*1469 FILLER_1_367
*1470 FILLER_1_3677
*1471 FILLER_1_3689
*1472 FILLER_1_3695
*1473 FILLER_1_3697
*1474 FILLER_1_3703
*1475 FILLER_1_3715
*1476 FILLER_1_3727
*1477 FILLER_1_3739
*1478 FILLER_1_3751
*1479 FILLER_1_3753
*1480 FILLER_1_3765
*1481 FILLER_1_3777
*1482 FILLER_1_3789
*1483 FILLER_1_379
*1484 FILLER_1_3801
*1485 FILLER_1_3807
*1486 FILLER_1_3809
*1487 FILLER_1_3821
*1488 FILLER_1_3833
*1489 FILLER_1_3845
*1490 FILLER_1_3857
*1491 FILLER_1_3863
*1492 FILLER_1_3865
*1493 FILLER_1_3871
*1494 FILLER_1_3883
*1495 FILLER_1_3895
*1496 FILLER_1_3907
*1497 FILLER_1_391
*1498 FILLER_1_3919
*1499 FILLER_1_3921
*1500 FILLER_1_393
*1501 FILLER_1_3933
*1502 FILLER_1_3945
*1503 FILLER_1_3957
*1504 FILLER_1_3969
*1505 FILLER_1_3975
*1506 FILLER_1_3977
*1507 FILLER_1_3989
*1508 FILLER_1_4001
*1509 FILLER_1_4013
*1510 FILLER_1_4025
*1511 FILLER_1_4031
*1512 FILLER_1_4033
*1513 FILLER_1_4039
*1514 FILLER_1_405
*1515 FILLER_1_4051
*1516 FILLER_1_4063
*1517 FILLER_1_4075
*1518 FILLER_1_4087
*1519 FILLER_1_4089
*1520 FILLER_1_4101
*1521 FILLER_1_4113
*1522 FILLER_1_4125
*1523 FILLER_1_4137
*1524 FILLER_1_4143
*1525 FILLER_1_4145
*1526 FILLER_1_4157
*1527 FILLER_1_4169
*1528 FILLER_1_417
*1529 FILLER_1_4181
*1530 FILLER_1_4193
*1531 FILLER_1_4199
*1532 FILLER_1_4201
*1533 FILLER_1_4207
*1534 FILLER_1_4219
*1535 FILLER_1_4231
*1536 FILLER_1_4243
*1537 FILLER_1_4255
*1538 FILLER_1_4257
*1539 FILLER_1_4269
*1540 FILLER_1_4281
*1541 FILLER_1_429
*1542 FILLER_1_4293
*1543 FILLER_1_43
*1544 FILLER_1_4305
*1545 FILLER_1_4311
*1546 FILLER_1_4313
*1547 FILLER_1_4325
*1548 FILLER_1_4337
*1549 FILLER_1_4341
*1550 FILLER_1_4348
*1551 FILLER_1_4354
*1552 FILLER_1_4366
*1553 FILLER_1_4369
*1554 FILLER_1_4373
*1555 FILLER_1_4385
*1556 FILLER_1_4397
*1557 FILLER_1_4409
*1558 FILLER_1_441
*1559 FILLER_1_4421
*1560 FILLER_1_4425
*1561 FILLER_1_4437
*1562 FILLER_1_4449
*1563 FILLER_1_4461
*1564 FILLER_1_447
*1565 FILLER_1_4473