*SPEF "ieee 1481-1999"
*DESIGN "bus_rep_north"
*DATE "11:11:11 Fri 11 11, 1111"
*VENDOR "OpenRCX"
*PROGRAM "Parallel Extraction"
*VERSION "1.0"
*DESIGN_FLOW "NAME_SCOPE LOCAL" "PIN_CAP NONE"
*DIVIDER /
*DELIMITER :
*BUS_DELIMITER []
*T_UNIT 1 NS
*C_UNIT 1 PF
*R_UNIT 1 OHM
*L_UNIT 1 HENRY

*NAME_MAP
*1 buf_in[0]
*2 buf_in[10]
*3 buf_in[11]
*4 buf_in[12]
*5 buf_in[13]
*6 buf_in[14]
*7 buf_in[15]
*8 buf_in[16]
*9 buf_in[17]
*10 buf_in[18]
*11 buf_in[19]
*12 buf_in[1]
*13 buf_in[20]
*14 buf_in[21]
*15 buf_in[22]
*16 buf_in[23]
*17 buf_in[24]
*18 buf_in[25]
*19 buf_in[26]
*20 buf_in[27]
*21 buf_in[28]
*22 buf_in[29]
*23 buf_in[2]
*24 buf_in[30]
*25 buf_in[31]
*26 buf_in[32]
*27 buf_in[33]
*28 buf_in[34]
*29 buf_in[35]
*30 buf_in[36]
*31 buf_in[37]
*32 buf_in[38]
*33 buf_in[39]
*34 buf_in[3]
*35 buf_in[40]
*36 buf_in[41]
*37 buf_in[4]
*38 buf_in[5]
*39 buf_in[6]
*40 buf_in[7]
*41 buf_in[8]
*42 buf_in[9]
*43 buf_out[0]
*44 buf_out[10]
*45 buf_out[11]
*46 buf_out[12]
*47 buf_out[13]
*48 buf_out[14]
*49 buf_out[15]
*50 buf_out[16]
*51 buf_out[17]
*52 buf_out[18]
*53 buf_out[19]
*54 buf_out[1]
*55 buf_out[20]
*56 buf_out[21]
*57 buf_out[22]
*58 buf_out[23]
*59 buf_out[24]
*60 buf_out[25]
*61 buf_out[26]
*62 buf_out[27]
*63 buf_out[28]
*64 buf_out[29]
*65 buf_out[2]
*66 buf_out[30]
*67 buf_out[31]
*68 buf_out[32]
*69 buf_out[33]
*70 buf_out[34]
*71 buf_out[35]
*72 buf_out[36]
*73 buf_out[37]
*74 buf_out[38]
*75 buf_out[39]
*76 buf_out[3]
*77 buf_out[40]
*78 buf_out[41]
*79 buf_out[4]
*80 buf_out[5]
*81 buf_out[6]
*82 buf_out[7]
*83 buf_out[8]
*84 buf_out[9]
*85 ch_in[0]
*86 ch_in[10]
*87 ch_in[11]
*88 ch_in[12]
*89 ch_in[13]
*90 ch_in[14]
*91 ch_in[15]
*92 ch_in[16]
*93 ch_in[17]
*94 ch_in[18]
*95 ch_in[19]
*96 ch_in[1]
*97 ch_in[20]
*98 ch_in[21]
*99 ch_in[22]
*100 ch_in[23]
*101 ch_in[24]
*102 ch_in[25]
*103 ch_in[26]
*104 ch_in[2]
*105 ch_in[3]
*106 ch_in[4]
*107 ch_in[5]
*108 ch_in[6]
*109 ch_in[7]
*110 ch_in[8]
*111 ch_in[9]
*112 ch_out[0]
*113 ch_out[10]
*114 ch_out[11]
*115 ch_out[12]
*116 ch_out[13]
*117 ch_out[14]
*118 ch_out[15]
*119 ch_out[16]
*120 ch_out[17]
*121 ch_out[18]
*122 ch_out[19]
*123 ch_out[1]
*124 ch_out[20]
*125 ch_out[21]
*126 ch_out[22]
*127 ch_out[23]
*128 ch_out[24]
*129 ch_out[25]
*130 ch_out[26]
*131 ch_out[2]
*132 ch_out[3]
*133 ch_out[4]
*134 ch_out[5]
*135 ch_out[6]
*136 ch_out[7]
*137 ch_out[8]
*138 ch_out[9]
*141 net1
*142 net10
*143 net100
*144 net101
*145 net102
*146 net103
*147 net104
*148 net105
*149 net106
*150 net107
*151 net108
*152 net109
*153 net11
*154 net110
*155 net111
*156 net112
*157 net113
*158 net114
*159 net115
*160 net116
*161 net117
*162 net118
*163 net119
*164 net12
*165 net120
*166 net121
*167 net122
*168 net123
*169 net124
*170 net125
*171 net126
*172 net127
*173 net128
*174 net129
*175 net13
*176 net130
*177 net131
*178 net132
*179 net133
*180 net134
*181 net135
*182 net136
*183 net137
*184 net138
*185 net139
*186 net14
*187 net140
*188 net141
*189 net142
*190 net143
*191 net144
*192 net145
*193 net146
*194 net147
*195 net148
*196 net149
*197 net15
*198 net150
*199 net151
*200 net152
*201 net153
*202 net154
*203 net155
*204 net156
*205 net157
*206 net158
*207 net159
*208 net16
*209 net160
*210 net161
*211 net162
*212 net163
*213 net164
*214 net165
*215 net166
*216 net167
*217 net168
*218 net169
*219 net17
*220 net170
*221 net171
*222 net172
*223 net173
*224 net174
*225 net175
*226 net176
*227 net18
*228 net19
*229 net2
*230 net20
*231 net21
*232 net22
*233 net23
*234 net24
*235 net25
*236 net26
*237 net27
*238 net28
*239 net29
*240 net3
*241 net30
*242 net31
*243 net32
*244 net33
*245 net34
*246 net35
*247 net36
*248 net37
*249 net38
*250 net39
*251 net4
*252 net40
*253 net41
*254 net42
*255 net43
*256 net44
*257 net45
*258 net46
*259 net47
*260 net48
*261 net49
*262 net5
*263 net50
*264 net51
*265 net52
*266 net53
*267 net54
*268 net55
*269 net56
*270 net57
*271 net58
*272 net59
*273 net6
*274 net60
*275 net61
*276 net62
*277 net63
*278 net64
*279 net65
*280 net66
*281 net67
*282 net68
*283 net69
*284 net7
*285 net70
*286 net71
*287 net72
*288 net73
*289 net74
*290 net75
*291 net76
*292 net77
*293 net78
*294 net79
*295 net8
*296 net80
*297 net81
*298 net82
*299 net83
*300 net84
*301 net85
*302 net86
*303 net87
*304 net88
*305 net89
*306 net9
*307 net90
*308 net91
*309 net92
*310 net93
*311 net94
*312 net95
*313 net96
*314 net97
*315 net98
*316 net99
*317 ANTENNA__00__A
*318 ANTENNA__01__A
*319 ANTENNA__02__A
*320 ANTENNA__03__A
*321 ANTENNA__04__A
*322 ANTENNA__05__A
*323 ANTENNA__06__A
*324 ANTENNA__07__A
*325 ANTENNA__08__A
*326 ANTENNA__09__A
*327 ANTENNA__10__A
*328 ANTENNA__11__A
*329 ANTENNA__12__A
*330 ANTENNA__13__A
*331 ANTENNA__14__A
*332 ANTENNA__15__A
*333 ANTENNA__16__A
*334 ANTENNA__17__A
*335 ANTENNA__18__A
*336 ANTENNA__19__A
*337 ANTENNA__20__A
*338 ANTENNA__21__A
*339 ANTENNA__22__A
*340 ANTENNA__23__A
*341 ANTENNA__24__A
*342 ANTENNA__25__A
*343 ANTENNA__26__A
*344 ANTENNA__27__A
*345 ANTENNA__28__A
*346 ANTENNA__29__A
*347 ANTENNA__30__A
*348 ANTENNA__31__A
*349 ANTENNA__32__A
*350 ANTENNA__33__A
*351 ANTENNA__34__A
*352 ANTENNA__35__A
*353 ANTENNA__36__A
*354 ANTENNA__37__A
*355 ANTENNA__38__A
*356 ANTENNA__39__A
*357 ANTENNA__40__A
*358 ANTENNA__41__A
*359 ANTENNA_u_rp\[0\]\.u_buf_A
*360 ANTENNA_u_rp\[10\]\.u_buf_A
*361 ANTENNA_u_rp\[11\]\.u_buf_A
*362 ANTENNA_u_rp\[12\]\.u_buf_A
*363 ANTENNA_u_rp\[13\]\.u_buf_A
*364 ANTENNA_u_rp\[14\]\.u_buf_A
*365 ANTENNA_u_rp\[15\]\.u_buf_A
*366 ANTENNA_u_rp\[16\]\.u_buf_A
*367 ANTENNA_u_rp\[17\]\.u_buf_A
*368 ANTENNA_u_rp\[18\]\.u_buf_A
*369 ANTENNA_u_rp\[19\]\.u_buf_A
*370 ANTENNA_u_rp\[1\]\.u_buf_A
*371 ANTENNA_u_rp\[20\]\.u_buf_A
*372 ANTENNA_u_rp\[21\]\.u_buf_A
*373 ANTENNA_u_rp\[22\]\.u_buf_A
*374 ANTENNA_u_rp\[23\]\.u_buf_A
*375 ANTENNA_u_rp\[24\]\.u_buf_A
*376 ANTENNA_u_rp\[25\]\.u_buf_A
*377 ANTENNA_u_rp\[26\]\.u_buf_A
*378 ANTENNA_u_rp\[2\]\.u_buf_A
*379 ANTENNA_u_rp\[3\]\.u_buf_A
*380 ANTENNA_u_rp\[4\]\.u_buf_A
*381 ANTENNA_u_rp\[5\]\.u_buf_A
*382 ANTENNA_u_rp\[6\]\.u_buf_A
*383 ANTENNA_u_rp\[7\]\.u_buf_A
*384 ANTENNA_u_rp\[8\]\.u_buf_A
*385 ANTENNA_u_rp\[9\]\.u_buf_A
*386 ANTENNA_wire100_A
*387 ANTENNA_wire101_A
*388 ANTENNA_wire102_A
*389 ANTENNA_wire103_A
*390 ANTENNA_wire104_A
*391 ANTENNA_wire105_A
*392 ANTENNA_wire106_A
*393 ANTENNA_wire107_A
*394 ANTENNA_wire108_A
*395 ANTENNA_wire109_A
*396 ANTENNA_wire10_A
*397 ANTENNA_wire110_A
*398 ANTENNA_wire111_A
*399 ANTENNA_wire112_A
*400 ANTENNA_wire113_A
*401 ANTENNA_wire114_A
*402 ANTENNA_wire115_A
*403 ANTENNA_wire116_A
*404 ANTENNA_wire117_A
*405 ANTENNA_wire118_A
*406 ANTENNA_wire119_A
*407 ANTENNA_wire11_A
*408 ANTENNA_wire120_A
*409 ANTENNA_wire121_A
*410 ANTENNA_wire122_A
*411 ANTENNA_wire123_A
*412 ANTENNA_wire124_A
*413 ANTENNA_wire125_A
*414 ANTENNA_wire126_A
*415 ANTENNA_wire127_A
*416 ANTENNA_wire128_A
*417 ANTENNA_wire129_A
*418 ANTENNA_wire12_A
*419 ANTENNA_wire130_A
*420 ANTENNA_wire131_A
*421 ANTENNA_wire132_A
*422 ANTENNA_wire133_A
*423 ANTENNA_wire134_A
*424 ANTENNA_wire135_A
*425 ANTENNA_wire136_A
*426 ANTENNA_wire137_A
*427 ANTENNA_wire138_A
*428 ANTENNA_wire139_A
*429 ANTENNA_wire13_A
*430 ANTENNA_wire140_A
*431 ANTENNA_wire141_A
*432 ANTENNA_wire142_A
*433 ANTENNA_wire143_A
*434 ANTENNA_wire144_A
*435 ANTENNA_wire145_A
*436 ANTENNA_wire146_A
*437 ANTENNA_wire147_A
*438 ANTENNA_wire148_A
*439 ANTENNA_wire149_A
*440 ANTENNA_wire14_A
*441 ANTENNA_wire150_A
*442 ANTENNA_wire151_A
*443 ANTENNA_wire152_A
*444 ANTENNA_wire153_A
*445 ANTENNA_wire154_A
*446 ANTENNA_wire155_A
*447 ANTENNA_wire156_A
*448 ANTENNA_wire157_A
*449 ANTENNA_wire158_A
*450 ANTENNA_wire159_A
*451 ANTENNA_wire15_A
*452 ANTENNA_wire160_A
*453 ANTENNA_wire161_A
*454 ANTENNA_wire162_A
*455 ANTENNA_wire163_A
*456 ANTENNA_wire164_A
*457 ANTENNA_wire165_A
*458 ANTENNA_wire166_A
*459 ANTENNA_wire167_A
*460 ANTENNA_wire168_A
*461 ANTENNA_wire169_A
*462 ANTENNA_wire16_A
*463 ANTENNA_wire170_A
*464 ANTENNA_wire171_A
*465 ANTENNA_wire172_A
*466 ANTENNA_wire173_A
*467 ANTENNA_wire174_A
*468 ANTENNA_wire175_A
*469 ANTENNA_wire176_A
*470 ANTENNA_wire17_A
*471 ANTENNA_wire19_A
*472 ANTENNA_wire1_A
*473 ANTENNA_wire20_A
*474 ANTENNA_wire21_A
*475 ANTENNA_wire22_A
*476 ANTENNA_wire23_A
*477 ANTENNA_wire24_A
*478 ANTENNA_wire25_A
*479 ANTENNA_wire26_A
*480 ANTENNA_wire27_A
*481 ANTENNA_wire28_A
*482 ANTENNA_wire29_A
*483 ANTENNA_wire2_A
*484 ANTENNA_wire30_A
*485 ANTENNA_wire31_A
*486 ANTENNA_wire32_A
*487 ANTENNA_wire33_A
*488 ANTENNA_wire34_A
*489 ANTENNA_wire35_A
*490 ANTENNA_wire36_A
*491 ANTENNA_wire37_A
*492 ANTENNA_wire38_A
*493 ANTENNA_wire39_A
*494 ANTENNA_wire3_A
*495 ANTENNA_wire40_A
*496 ANTENNA_wire41_A
*497 ANTENNA_wire42_A
*498 ANTENNA_wire43_A
*499 ANTENNA_wire44_A
*500 ANTENNA_wire45_A
*501 ANTENNA_wire46_A
*502 ANTENNA_wire47_A
*503 ANTENNA_wire48_A
*504 ANTENNA_wire49_A
*505 ANTENNA_wire4_A
*506 ANTENNA_wire50_A
*507 ANTENNA_wire51_A
*508 ANTENNA_wire52_A
*509 ANTENNA_wire53_A
*510 ANTENNA_wire54_A
*511 ANTENNA_wire55_A
*512 ANTENNA_wire56_A
*513 ANTENNA_wire57_A
*514 ANTENNA_wire58_A
*515 ANTENNA_wire5_A
*516 ANTENNA_wire60_A
*517 ANTENNA_wire61_A
*518 ANTENNA_wire62_A
*519 ANTENNA_wire63_A
*520 ANTENNA_wire65_A
*521 ANTENNA_wire66_A
*522 ANTENNA_wire67_A
*523 ANTENNA_wire68_A
*524 ANTENNA_wire69_A
*525 ANTENNA_wire6_A
*526 ANTENNA_wire70_A
*527 ANTENNA_wire71_A
*528 ANTENNA_wire72_A
*529 ANTENNA_wire73_A
*530 ANTENNA_wire74_A
*531 ANTENNA_wire75_A
*532 ANTENNA_wire76_A
*533 ANTENNA_wire77_A
*534 ANTENNA_wire78_A
*535 ANTENNA_wire80_A
*536 ANTENNA_wire81_A
*537 ANTENNA_wire83_A
*538 ANTENNA_wire84_A
*539 ANTENNA_wire86_A
*540 ANTENNA_wire87_A
*541 ANTENNA_wire89_A
*542 ANTENNA_wire8_A
*543 ANTENNA_wire90_A
*544 ANTENNA_wire91_A
*545 ANTENNA_wire92_A
*546 ANTENNA_wire93_A
*547 ANTENNA_wire94_A
*548 ANTENNA_wire95_A
*549 ANTENNA_wire96_A
*550 ANTENNA_wire97_A
*551 ANTENNA_wire98_A
*552 ANTENNA_wire99_A
*553 ANTENNA_wire9_A
*554 FILLER_0_1005
*555 FILLER_0_1009
*556 FILLER_0_1021
*557 FILLER_0_1033
*558 FILLER_0_1037
*559 FILLER_0_1055
*560 FILLER_0_1061
*561 FILLER_0_1065
*562 FILLER_0_1077
*563 FILLER_0_1089
*564 FILLER_0_109
*565 FILLER_0_1093
*566 FILLER_0_11
*567 FILLER_0_1105
*568 FILLER_0_1113
*569 FILLER_0_1118
*570 FILLER_0_1121
*571 FILLER_0_113
*572 FILLER_0_1132
*573 FILLER_0_1144
*574 FILLER_0_1149
*575 FILLER_0_1161
*576 FILLER_0_1174
*577 FILLER_0_1177
*578 FILLER_0_1187
*579 FILLER_0_1193
*580 FILLER_0_1201
*581 FILLER_0_1205
*582 FILLER_0_1217
*583 FILLER_0_1230
*584 FILLER_0_1233
*585 FILLER_0_125
*586 FILLER_0_1251
*587 FILLER_0_1255
*588 FILLER_0_1258
*589 FILLER_0_1261
*590 FILLER_0_1273
*591 FILLER_0_1286
*592 FILLER_0_1289
*593 FILLER_0_1301
*594 FILLER_0_1314
*595 FILLER_0_1317
*596 FILLER_0_1329
*597 FILLER_0_1342
*598 FILLER_0_1345
*599 FILLER_0_1353
*600 FILLER_0_1366
*601 FILLER_0_137
*602 FILLER_0_1373
*603 FILLER_0_1383
*604 FILLER_0_1389
*605 FILLER_0_1397
*606 FILLER_0_1401
*607 FILLER_0_1405
*608 FILLER_0_141
*609 FILLER_0_1418
*610 FILLER_0_1426
*611 FILLER_0_1429
*612 FILLER_0_1441
*613 FILLER_0_1453
*614 FILLER_0_1457
*615 FILLER_0_1465
*616 FILLER_0_1469
*617 FILLER_0_1482
*618 FILLER_0_1485
*619 FILLER_0_1497
*620 FILLER_0_1509
*621 FILLER_0_1513
*622 FILLER_0_1525
*623 FILLER_0_153
*624 FILLER_0_1537
*625 FILLER_0_1541
*626 FILLER_0_1554
*627 FILLER_0_1566
*628 FILLER_0_1569
*629 FILLER_0_1579
*630 FILLER_0_1591
*631 FILLER_0_1595
*632 FILLER_0_1597
*633 FILLER_0_1601
*634 FILLER_0_1614
*635 FILLER_0_1622
*636 FILLER_0_1625
*637 FILLER_0_1643
*638 FILLER_0_1647
*639 FILLER_0_165
*640 FILLER_0_1650
*641 FILLER_0_1653
*642 FILLER_0_1664
*643 FILLER_0_1676
*644 FILLER_0_1681
*645 FILLER_0_1689
*646 FILLER_0_169
*647 FILLER_0_1693
*648 FILLER_0_17
*649 FILLER_0_1706
*650 FILLER_0_1709
*651 FILLER_0_1721
*652 FILLER_0_1729
*653 FILLER_0_1734
*654 FILLER_0_1737
*655 FILLER_0_1749
*656 FILLER_0_1761
*657 FILLER_0_1765
*658 FILLER_0_1775
*659 FILLER_0_1790
*660 FILLER_0_1793
*661 FILLER_0_1805
*662 FILLER_0_181
*663 FILLER_0_1817
*664 FILLER_0_1821
*665 FILLER_0_1839
*666 FILLER_0_1845
*667 FILLER_0_1849
*668 FILLER_0_1861
*669 FILLER_0_1873
*670 FILLER_0_1877
*671 FILLER_0_1889
*672 FILLER_0_1901
*673 FILLER_0_1905
*674 FILLER_0_1917
*675 FILLER_0_1929
*676 FILLER_0_193
*677 FILLER_0_1933
*678 FILLER_0_1945
*679 FILLER_0_1957
*680 FILLER_0_1961
*681 FILLER_0_197
*682 FILLER_0_1971
*683 FILLER_0_1977
*684 FILLER_0_1985
*685 FILLER_0_1989
*686 FILLER_0_2001
*687 FILLER_0_2013
*688 FILLER_0_2017
*689 FILLER_0_2029
*690 FILLER_0_2041
*691 FILLER_0_2045
*692 FILLER_0_2057
*693 FILLER_0_2069
*694 FILLER_0_207
*695 FILLER_0_2073
*696 FILLER_0_2087
*697 FILLER_0_2093
*698 FILLER_0_2099
*699 FILLER_0_2101
*700 FILLER_0_2113
*701 FILLER_0_2125
*702 FILLER_0_2129
*703 FILLER_0_213
*704 FILLER_0_2137
*705 FILLER_0_2141
*706 FILLER_0_2154
*707 FILLER_0_2157
*708 FILLER_0_2163
*709 FILLER_0_2167
*710 FILLER_0_2173
*711 FILLER_0_2181
*712 FILLER_0_2185
*713 FILLER_0_2193
*714 FILLER_0_2206
*715 FILLER_0_221
*716 FILLER_0_2213
*717 FILLER_0_2217
*718 FILLER_0_2230
*719 FILLER_0_2238
*720 FILLER_0_2241
*721 FILLER_0_225
*722 FILLER_0_2253
*723 FILLER_0_2266
*724 FILLER_0_2269
*725 FILLER_0_2283
*726 FILLER_0_2293
*727 FILLER_0_2297
*728 FILLER_0_2309
*729 FILLER_0_2322
*730 FILLER_0_2325
*731 FILLER_0_2337
*732 FILLER_0_2350
*733 FILLER_0_2353
*734 FILLER_0_2363
*735 FILLER_0_237
*736 FILLER_0_2378
*737 FILLER_0_2381
*738 FILLER_0_2392
*739 FILLER_0_2398
*740 FILLER_0_2406
*741 FILLER_0_2409
*742 FILLER_0_2420
*743 FILLER_0_2426
*744 FILLER_0_2434
*745 FILLER_0_2437
*746 FILLER_0_2448
*747 FILLER_0_2460
*748 FILLER_0_2465
*749 FILLER_0_2477
*750 FILLER_0_2489
*751 FILLER_0_249
*752 FILLER_0_2493
*753 FILLER_0_2498
*754 FILLER_0_25
*755 FILLER_0_2511
*756 FILLER_0_2519
*757 FILLER_0_2521
*758 FILLER_0_253
*759 FILLER_0_2533
*760 FILLER_0_2545
*761 FILLER_0_2549
*762 FILLER_0_2559
*763 FILLER_0_2565
*764 FILLER_0_2571
*765 FILLER_0_2574
*766 FILLER_0_2577
*767 FILLER_0_2588
*768 FILLER_0_2600
*769 FILLER_0_2605
*770 FILLER_0_2617
*771 FILLER_0_2625
*772 FILLER_0_2630
*773 FILLER_0_2633
*774 FILLER_0_2644
*775 FILLER_0_265
*776 FILLER_0_2656
*777 FILLER_0_2661
*778 FILLER_0_2675
*779 FILLER_0_2683
*780 FILLER_0_2686
*781 FILLER_0_2689
*782 FILLER_0_2700
*783 FILLER_0_2712
*784 FILLER_0_2717
*785 FILLER_0_2732
*786 FILLER_0_2745
*787 FILLER_0_2755
*788 FILLER_0_2767
*789 FILLER_0_277
*790 FILLER_0_2770
*791 FILLER_0_2773
*792 FILLER_0_2784
*793 FILLER_0_2798
*794 FILLER_0_2801
*795 FILLER_0_281
*796 FILLER_0_2816
*797 FILLER_0_2829
*798 FILLER_0_2837
*799 FILLER_0_2841
*800 FILLER_0_2854
*801 FILLER_0_2857
*802 FILLER_0_2871
*803 FILLER_0_2877
*804 FILLER_0_2883
*805 FILLER_0_2885
*806 FILLER_0_2897
*807 FILLER_0_29
*808 FILLER_0_2909
*809 FILLER_0_2913
*810 FILLER_0_2925
*811 FILLER_0_293
*812 FILLER_0_2937
*813 FILLER_0_2941
*814 FILLER_0_2951
*815 FILLER_0_2957
*816 FILLER_0_2965
*817 FILLER_0_2969
*818 FILLER_0_2981
*819 FILLER_0_2993
*820 FILLER_0_2997
*821 FILLER_0_3
*822 FILLER_0_3008
*823 FILLER_0_3014
*824 FILLER_0_3022
*825 FILLER_0_3025
*826 FILLER_0_3037
*827 FILLER_0_3049
*828 FILLER_0_305
*829 FILLER_0_3053
*830 FILLER_0_3065
*831 FILLER_0_3077
*832 FILLER_0_3081
*833 FILLER_0_309
*834 FILLER_0_3093
*835 FILLER_0_3104
*836 FILLER_0_3109
*837 FILLER_0_3113
*838 FILLER_0_3125
*839 FILLER_0_3133
*840 FILLER_0_3137
*841 FILLER_0_3147
*842 FILLER_0_3153
*843 FILLER_0_3161
*844 FILLER_0_3165
*845 FILLER_0_3170
*846 FILLER_0_3183
*847 FILLER_0_3191
*848 FILLER_0_3193
*849 FILLER_0_3205
*850 FILLER_0_321
*851 FILLER_0_3218
*852 FILLER_0_3221
*853 FILLER_0_3229
*854 FILLER_0_3246
*855 FILLER_0_3249
*856 FILLER_0_3260
*857 FILLER_0_3270
*858 FILLER_0_3277
*859 FILLER_0_3281
*860 FILLER_0_3294
*861 FILLER_0_3302
*862 FILLER_0_3305
*863 FILLER_0_3316
*864 FILLER_0_3320
*865 FILLER_0_333
*866 FILLER_0_3330
*867 FILLER_0_3333
*868 FILLER_0_3343
*869 FILLER_0_3353
*870 FILLER_0_3359
*871 FILLER_0_3361
*872 FILLER_0_3369
*873 FILLER_0_337
*874 FILLER_0_3379
*875 FILLER_0_3385
*876 FILLER_0_3389
*877 FILLER_0_3400
*878 FILLER_0_3410
*879 FILLER_0_3417
*880 FILLER_0_3421
*881 FILLER_0_3442
*882 FILLER_0_3445
*883 FILLER_0_3449
*884 FILLER_0_3456
*885 FILLER_0_3464
*886 FILLER_0_3473
*887 FILLER_0_3485
*888 FILLER_0_349
*889 FILLER_0_3497
*890 FILLER_0_3501
*891 FILLER_0_3506
*892 FILLER_0_3514
*893 FILLER_0_3518
*894 FILLER_0_3526
*895 FILLER_0_3529
*896 FILLER_0_3539
*897 FILLER_0_3545
*898 FILLER_0_3553
*899 FILLER_0_3557
*900 FILLER_0_3565
*901 FILLER_0_3570
*902 FILLER_0_3576
*903 FILLER_0_3585
*904 FILLER_0_3596
*905 FILLER_0_3604
*906 FILLER_0_361
*907 FILLER_0_3610
*908 FILLER_0_3613
*909 FILLER_0_3625
*910 FILLER_0_3631
*911 FILLER_0_3636
*912 FILLER_0_3641
*913 FILLER_0_3645
*914 FILLER_0_365
*915 FILLER_0_3651
*916 FILLER_0_3656
*917 FILLER_0_3664
*918 FILLER_0_3669
*919 FILLER_0_3681
*920 FILLER_0_3691
*921 FILLER_0_3695
*922 FILLER_0_3697
*923 FILLER_0_3703
*924 FILLER_0_3711
*925 FILLER_0_3717
*926 FILLER_0_3723
*927 FILLER_0_3725
*928 FILLER_0_3735
*929 FILLER_0_3743
*930 FILLER_0_3748
*931 FILLER_0_3753
*932 FILLER_0_3759
*933 FILLER_0_3765
*934 FILLER_0_377
*935 FILLER_0_3777
*936 FILLER_0_3781
*937 FILLER_0_3791
*938 FILLER_0_3799
*939 FILLER_0_380
*940 FILLER_0_3807
*941 FILLER_0_3809
*942 FILLER_0_3815
*943 FILLER_0_3820
*944 FILLER_0_3824
*945 FILLER_0_3834
*946 FILLER_0_3837
*947 FILLER_0_3843
*948 FILLER_0_3849
*949 FILLER_0_3859
*950 FILLER_0_3863
*951 FILLER_0_3865
*952 FILLER_0_3872
*953 FILLER_0_3876
*954 FILLER_0_3886
*955 FILLER_0_3893
*956 FILLER_0_3897
*957 FILLER_0_390
*958 FILLER_0_3909
*959 FILLER_0_3917
*960 FILLER_0_3921
*961 FILLER_0_393
*962 FILLER_0_3931
*963 FILLER_0_3943
*964 FILLER_0_3947
*965 FILLER_0_3949
*966 FILLER_0_3961
*967 FILLER_0_3973
*968 FILLER_0_3977
*969 FILLER_0_3988
*970 FILLER_0_3994
*971 FILLER_0_4002
*972 FILLER_0_4005
*973 FILLER_0_4017
*974 FILLER_0_403
*975 FILLER_0_4030
*976 FILLER_0_4033
*977 FILLER_0_4037
*978 FILLER_0_4049
*979 FILLER_0_4057
*980 FILLER_0_4061
*981 FILLER_0_4073
*982 FILLER_0_4085
*983 FILLER_0_4089
*984 FILLER_0_41
*985 FILLER_0_4101
*986 FILLER_0_4113
*987 FILLER_0_4117
*988 FILLER_0_4127
*989 FILLER_0_4140
*990 FILLER_0_4145
*991 FILLER_0_4149
*992 FILLER_0_415
*993 FILLER_0_4161
*994 FILLER_0_4169
*995 FILLER_0_4173
*996 FILLER_0_4184
*997 FILLER_0_419
*998 FILLER_0_4190
*999 FILLER_0_4198
*1000 FILLER_0_4201
*1001 FILLER_0_421
*1002 FILLER_0_4212
*1003 FILLER_0_4216
*1004 FILLER_0_4223
*1005 FILLER_0_4227
*1006 FILLER_0_4229
*1007 FILLER_0_4233
*1008 FILLER_0_4237
*1009 FILLER_0_4247
*1010 FILLER_0_4255
*1011 FILLER_0_4257
*1012 FILLER_0_4265
*1013 FILLER_0_4277
*1014 FILLER_0_4283
*1015 FILLER_0_4285
*1016 FILLER_0_4293
*1017 FILLER_0_4310
*1018 FILLER_0_4313
*1019 FILLER_0_4323
*1020 FILLER_0_433
*1021 FILLER_0_4336
*1022 FILLER_0_4341
*1023 FILLER_0_4356
*1024 FILLER_0_4369
*1025 FILLER_0_4377
*1026 FILLER_0_4381
*1027 FILLER_0_4394
*1028 FILLER_0_4397
*1029 FILLER_0_4409
*1030 FILLER_0_441
*1031 FILLER_0_4422
*1032 FILLER_0_4425
*1033 FILLER_0_4433
*1034 FILLER_0_4439
*1035 FILLER_0_4451
*1036 FILLER_0_4453
*1037 FILLER_0_446
*1038 FILLER_0_4461
*1039 FILLER_0_4472
*1040 FILLER_0_4478
*1041 FILLER_0_4481
*1042 FILLER_0_449
*1043 FILLER_0_4493
*1044 FILLER_0_4505
*1045 FILLER_0_4509
*1046 FILLER_0_4519
*1047 FILLER_0_4531
*1048 FILLER_0_4535
*1049 FILLER_0_4537
*1050 FILLER_0_4549
*1051 FILLER_0_4561
*1052 FILLER_0_4565
*1053 FILLER_0_457
*1054 FILLER_0_4576
*1055 FILLER_0_4582
*1056 FILLER_0_4590
*1057 FILLER_0_4593
*1058 FILLER_0_4605
*1059 FILLER_0_4617
*1060 FILLER_0_4621
*1061 FILLER_0_4625
*1062 FILLER_0_4637
*1063 FILLER_0_4645
*1064 FILLER_0_4649
*1065 FILLER_0_4661
*1066 FILLER_0_4673
*1067 FILLER_0_4677
*1068 FILLER_0_4689
*1069 FILLER_0_469
*1070 FILLER_0_4701
*1071 FILLER_0_4705
*1072 FILLER_0_4715
*1073 FILLER_0_4725
*1074 FILLER_0_4731
*1075 FILLER_0_4733
*1076 FILLER_0_4745
*1077 FILLER_0_475
*1078 FILLER_0_4757
*1079 FILLER_0_4761
*1080 FILLER_0_477
*1081 FILLER_0_4772
*1082 FILLER_0_4778
*1083 FILLER_0_4786
*1084 FILLER_0_4789
*1085 FILLER_0_4801
*1086 FILLER_0_4813
*1087 FILLER_0_4817
*1088 FILLER_0_4829
*1089 FILLER_0_4841
*1090 FILLER_0_4845
*1091 FILLER_0_4859
*1092 FILLER_0_4865
*1093 FILLER_0_4871
*1094 FILLER_0_4873
*1095 FILLER_0_4885
*1096 FILLER_0_489
*1097 FILLER_0_4897
*1098 FILLER_0_4901
*1099 FILLER_0_4911
*1100 FILLER_0_4917
*1101 FILLER_0_4925
*1102 FILLER_0_4929
*1103 FILLER_0_4941
*1104 FILLER_0_4953
*1105 FILLER_0_4957
*1106 FILLER_0_4969
*1107 FILLER_0_4981
*1108 FILLER_0_4985
*1109 FILLER_0_5003
*1110 FILLER_0_5009
*1111 FILLER_0_501
*1112 FILLER_0_5013
*1113 FILLER_0_5025
*1114 FILLER_0_5037
*1115 FILLER_0_5041
*1116 FILLER_0_5047
*1117 FILLER_0_505
*1118 FILLER_0_5054
*1119 FILLER_0_5060
*1120 FILLER_0_5069
*1121 FILLER_0_5081
*1122 FILLER_0_5093
*1123 FILLER_0_5097
*1124 FILLER_0_5107
*1125 FILLER_0_5119
*1126 FILLER_0_5123
*1127 FILLER_0_5125
*1128 FILLER_0_5137
*1129 FILLER_0_5141
*1130 FILLER_0_5148
*1131 FILLER_0_515
*1132 FILLER_0_5153
*1133 FILLER_0_5157
*1134 FILLER_0_5169
*1135 FILLER_0_5177
*1136 FILLER_0_5181
*1137 FILLER_0_5189
*1138 FILLER_0_5198
*1139 FILLER_0_5204
*1140 FILLER_0_5209
*1141 FILLER_0_5221
*1142 FILLER_0_5233
*1143 FILLER_0_5237
*1144 FILLER_0_5249
*1145 FILLER_0_525
*1146 FILLER_0_5261
*1147 FILLER_0_5265
*1148 FILLER_0_5277
*1149 FILLER_0_5289
*1150 FILLER_0_5293
*1151 FILLER_0_53
*1152 FILLER_0_5305
*1153 FILLER_0_531
*1154 FILLER_0_5317
*1155 FILLER_0_5321
*1156 FILLER_0_533
*1157 FILLER_0_5333
*1158 FILLER_0_5342
*1159 FILLER_0_5349
*1160 FILLER_0_5353
*1161 FILLER_0_5365
*1162 FILLER_0_5373
*1163 FILLER_0_5377
*1164 FILLER_0_5389
*1165 FILLER_0_5401
*1166 FILLER_0_5405
*1167 FILLER_0_5417
*1168 FILLER_0_5429
*1169 FILLER_0_5433
*1170 FILLER_0_5445
*1171 FILLER_0_545
*1172 FILLER_0_5457
*1173 FILLER_0_5461
*1174 FILLER_0_5473
*1175 FILLER_0_5485
*1176 FILLER_0_5489
*1177 FILLER_0_5501
*1178 FILLER_0_5513
*1179 FILLER_0_5517
*1180 FILLER_0_5529
*1181 FILLER_0_5541
*1182 FILLER_0_5545
*1183 FILLER_0_5557
*1184 FILLER_0_5569
*1185 FILLER_0_557
*1186 FILLER_0_5573
*1187 FILLER_0_5585
*1188 FILLER_0_5597
*1189 FILLER_0_5601
*1190 FILLER_0_561
*1191 FILLER_0_5613
*1192 FILLER_0_5625
*1193 FILLER_0_5629
*1194 FILLER_0_5641
*1195 FILLER_0_5653
*1196 FILLER_0_5657
*1197 FILLER_0_5669
*1198 FILLER_0_5681
*1199 FILLER_0_5685
*1200 FILLER_0_5697
*1201 FILLER_0_57
*1202 FILLER_0_5709
*1203 FILLER_0_5713
*1204 FILLER_0_5725
*1205 FILLER_0_575
*1206 FILLER_0_585
*1207 FILLER_0_589
*1208 FILLER_0_599
*1209 FILLER_0_605
*1210 FILLER_0_613
*1211 FILLER_0_617
*1212 FILLER_0_622
*1213 FILLER_0_632
*1214 FILLER_0_645
*1215 FILLER_0_657
*1216 FILLER_0_665
*1217 FILLER_0_670
*1218 FILLER_0_673
*1219 FILLER_0_681
*1220 FILLER_0_69
*1221 FILLER_0_693
*1222 FILLER_0_699
*1223 FILLER_0_701
*1224 FILLER_0_707
*1225 FILLER_0_710
*1226 FILLER_0_720
*1227 FILLER_0_729
*1228 FILLER_0_741
*1229 FILLER_0_749
*1230 FILLER_0_754
*1231 FILLER_0_757
*1232 FILLER_0_768
*1233 FILLER_0_780
*1234 FILLER_0_785
*1235 FILLER_0_795
*1236 FILLER_0_808
*1237 FILLER_0_81
*1238 FILLER_0_813
*1239 FILLER_0_825
*1240 FILLER_0_837
*1241 FILLER_0_841
*1242 FILLER_0_85
*1243 FILLER_0_853
*1244 FILLER_0_865
*1245 FILLER_0_869
*1246 FILLER_0_881
*1247 FILLER_0_893
*1248 FILLER_0_897
*1249 FILLER_0_909
*1250 FILLER_0_921
*1251 FILLER_0_925
*1252 FILLER_0_937
*1253 FILLER_0_949
*1254 FILLER_0_953
*1255 FILLER_0_965
*1256 FILLER_0_97
*1257 FILLER_0_977
*1258 FILLER_0_981
*1259 FILLER_0_987
*1260 FILLER_0_991
*1261 FILLER_0_997
*1262 FILLER_1_1001
*1263 FILLER_1_1007
*1264 FILLER_1_1009
*1265 FILLER_1_1021
*1266 FILLER_1_1033
*1267 FILLER_1_1045
*1268 FILLER_1_105
*1269 FILLER_1_1057
*1270 FILLER_1_1063
*1271 FILLER_1_1065
*1272 FILLER_1_1077
*1273 FILLER_1_1089
*1274 FILLER_1_1101
*1275 FILLER_1_111
*1276 FILLER_1_1113
*1277 FILLER_1_1119
*1278 FILLER_1_1121
*1279 FILLER_1_113
*1280 FILLER_1_1133
*1281 FILLER_1_1145
*1282 FILLER_1_1157
*1283 FILLER_1_1165
*1284 FILLER_1_1173
*1285 FILLER_1_1177
*1286 FILLER_1_1189
*1287 FILLER_1_1201
*1288 FILLER_1_1205
*1289 FILLER_1_1208
*1290 FILLER_1_1214
*1291 FILLER_1_1217
*1292 FILLER_1_1230
*1293 FILLER_1_1233
*1294 FILLER_1_1237
*1295 FILLER_1_1247
*1296 FILLER_1_125
*1297 FILLER_1_1260
*1298 FILLER_1_1273
*1299 FILLER_1_1286
*1300 FILLER_1_1289
*1301 FILLER_1_1293
*1302 FILLER_1_1303
*1303 FILLER_1_1316
*1304 FILLER_1_1329
*1305 FILLER_1_1342
*1306 FILLER_1_1345
*1307 FILLER_1_1355
*1308 FILLER_1_1361
*1309 FILLER_1_1367
*1310 FILLER_1_137
*1311 FILLER_1_1373
*1312 FILLER_1_1385
*1313 FILLER_1_1397
*1314 FILLER_1_1401
*1315 FILLER_1_1413
*1316 FILLER_1_1425
*1317 FILLER_1_1437
*1318 FILLER_1_1449
*1319 FILLER_1_1455
*1320 FILLER_1_1457
*1321 FILLER_1_1469
*1322 FILLER_1_1481
*1323 FILLER_1_149
*1324 FILLER_1_1493
*1325 FILLER_1_15
*1326 FILLER_1_1505
*1327 FILLER_1_1511
*1328 FILLER_1_1513
*1329 FILLER_1_1525
*1330 FILLER_1_1537
*1331 FILLER_1_1545
*1332 FILLER_1_1557
*1333 FILLER_1_1565
*1334 FILLER_1_1569
*1335 FILLER_1_1575
*1336 FILLER_1_1587
*1337 FILLER_1_1599
*1338 FILLER_1_161
*1339 FILLER_1_1611
*1340 FILLER_1_1623
*1341 FILLER_1_1625
*1342 FILLER_1_1637
*1343 FILLER_1_1645
*1344 FILLER_1_1657
*1345 FILLER_1_1669
*1346 FILLER_1_167
*1347 FILLER_1_1677
*1348 FILLER_1_1681
*1349 FILLER_1_169
*1350 FILLER_1_1693
*1351 FILLER_1_1705
*1352 FILLER_1_1717
*1353 FILLER_1_1729
*1354 FILLER_1_1735
*1355 FILLER_1_1737
*1356 FILLER_1_1749
*1357 FILLER_1_1761
*1358 FILLER_1_1775
*1359 FILLER_1_1781
*1360 FILLER_1_1789
*1361 FILLER_1_1793
*1362 FILLER_1_1805
*1363 FILLER_1_181
*1364 FILLER_1_1813
*1365 FILLER_1_1816
*1366 FILLER_1_1829
*1367 FILLER_1_1841
*1368 FILLER_1_1847
*1369 FILLER_1_1849
*1370 FILLER_1_1861
*1371 FILLER_1_1873
*1372 FILLER_1_1885
*1373 FILLER_1_1897
*1374 FILLER_1_1903
*1375 FILLER_1_1905
*1376 FILLER_1_1917
*1377 FILLER_1_1929
*1378 FILLER_1_193
*1379 FILLER_1_1941
*1380 FILLER_1_1953
*1381 FILLER_1_1959
*1382 FILLER_1_1961
*1383 FILLER_1_1973
*1384 FILLER_1_1985
*1385 FILLER_1_1997
*1386 FILLER_1_2009
*1387 FILLER_1_2015
*1388 FILLER_1_2017
*1389 FILLER_1_2029
*1390 FILLER_1_2041
*1391 FILLER_1_205
*1392 FILLER_1_2053
*1393 FILLER_1_2065
*1394 FILLER_1_2071
*1395 FILLER_1_2073
*1396 FILLER_1_2085
*1397 FILLER_1_2097
*1398 FILLER_1_2109
*1399 FILLER_1_2121
*1400 FILLER_1_2127
*1401 FILLER_1_2129
*1402 FILLER_1_2141
*1403 FILLER_1_2153
*1404 FILLER_1_2165
*1405 FILLER_1_217
*1406 FILLER_1_2177
*1407 FILLER_1_2182
*1408 FILLER_1_2185
*1409 FILLER_1_2196
*1410 FILLER_1_2208
*1411 FILLER_1_2223
*1412 FILLER_1_2229
*1413 FILLER_1_223
*1414 FILLER_1_2235
*1415 FILLER_1_2238
*1416 FILLER_1_2241
*1417 FILLER_1_225
*1418 FILLER_1_2252
*1419 FILLER_1_2258
*1420 FILLER_1_2268
*1421 FILLER_1_2281
*1422 FILLER_1_2294
*1423 FILLER_1_2297
*1424 FILLER_1_2301
*1425 FILLER_1_2311
*1426 FILLER_1_2324
*1427 FILLER_1_2337
*1428 FILLER_1_2350
*1429 FILLER_1_2353
*1430 FILLER_1_2357
*1431 FILLER_1_2360
*1432 FILLER_1_237
*1433 FILLER_1_2373
*1434 FILLER_1_2386
*1435 FILLER_1_2392
*1436 FILLER_1_2398
*1437 FILLER_1_2406
*1438 FILLER_1_2409
*1439 FILLER_1_2421
*1440 FILLER_1_2433
*1441 FILLER_1_2445
*1442 FILLER_1_2457
*1443 FILLER_1_2463
*1444 FILLER_1_2465
*1445 FILLER_1_2477
*1446 FILLER_1_2489
*1447 FILLER_1_249
*1448 FILLER_1_2501
*1449 FILLER_1_2513
*1450 FILLER_1_2519
*1451 FILLER_1_2521
*1452 FILLER_1_2533
*1453 FILLER_1_2545
*1454 FILLER_1_2557
*1455 FILLER_1_2569
*1456 FILLER_1_2575
*1457 FILLER_1_2577
*1458 FILLER_1_2589
*1459 FILLER_1_2601
*1460 FILLER_1_261
*1461 FILLER_1_2613
*1462 FILLER_1_2625
*1463 FILLER_1_2631
*1464 FILLER_1_2633
*1465 FILLER_1_2645
*1466 FILLER_1_2657
*1467 FILLER_1_2669
*1468 FILLER_1_2677
*1469 FILLER_1_2685
*1470 FILLER_1_2689
*1471 FILLER_1_27
*1472 FILLER_1_2701
*1473 FILLER_1_2713
*1474 FILLER_1_2723
*1475 FILLER_1_273
*1476 FILLER_1_2735
*1477 FILLER_1_2743
*1478 FILLER_1_2745
*1479 FILLER_1_2751
*1480 FILLER_1_2763
*1481 FILLER_1_2775
*1482 FILLER_1_2787
*1483 FILLER_1_279
*1484 FILLER_1_2799
*1485 FILLER_1_2801
*1486 FILLER_1_281
*1487 FILLER_1_2812
*1488 FILLER_1_2818
*1489 FILLER_1_2830
*1490 FILLER_1_2842
*1491 FILLER_1_2854
*1492 FILLER_1_2857
*1493 FILLER_1_2869
*1494 FILLER_1_2881
*1495 FILLER_1_2893
*1496 FILLER_1_2905
*1497 FILLER_1_2911
*1498 FILLER_1_2913
*1499 FILLER_1_2925
*1500 FILLER_1_293
*1501 FILLER_1_2937
*1502 FILLER_1_2949
*1503 FILLER_1_2961
*1504 FILLER_1_2967
*1505 FILLER_1_2969
*1506 FILLER_1_2981
*1507 FILLER_1_2993
*1508 FILLER_1_3
*1509 FILLER_1_3005
*1510 FILLER_1_3017
*1511 FILLER_1_3023
*1512 FILLER_1_3025
*1513 FILLER_1_3037
*1514 FILLER_1_3049
*1515 FILLER_1_305
*1516 FILLER_1_3061
*1517 FILLER_1_3073
*1518 FILLER_1_3079
*1519 FILLER_1_3081
*1520 FILLER_1_3093
*1521 FILLER_1_3105
*1522 FILLER_1_3117
*1523 FILLER_1_3129
*1524 FILLER_1_3135
*1525 FILLER_1_3137
*1526 FILLER_1_3149
*1527 FILLER_1_3161
*1528 FILLER_1_317
*1529 FILLER_1_3173
*1530 FILLER_1_3185
*1531 FILLER_1_3191
*1532 FILLER_1_3193
*1533 FILLER_1_3207
*1534 FILLER_1_3213
*1535 FILLER_1_3219
*1536 FILLER_1_3223
*1537 FILLER_1_3229
*1538 FILLER_1_3235
*1539 FILLER_1_3243
*1540 FILLER_1_3246
*1541 FILLER_1_3249
*1542 FILLER_1_3257
*1543 FILLER_1_3264
*1544 FILLER_1_3270
*1545 FILLER_1_3278
*1546 FILLER_1_3285
*1547 FILLER_1_329
*1548 FILLER_1_3298
*1549 FILLER_1_3305
*1550 FILLER_1_3313
*1551 FILLER_1_3323
*1552 FILLER_1_3333
*1553 FILLER_1_3343
*1554 FILLER_1_335
*1555 FILLER_1_3353
*1556 FILLER_1_3359
*1557 FILLER_1_3361
*1558 FILLER_1_3369
*1559 FILLER_1_337
*1560 FILLER_1_3379
*1561 FILLER_1_3389
*1562 FILLER_1_3395
*1563 FILLER_1_3403
*1564 FILLER_1_3411
*1565 FILLER_1_3415
*1566 FILLER_1_3417
*1567 FILLER_1_3421
*1568 FILLER_1_3433
*1569 FILLER_1_3438
*1570 FILLER_1_3444
*1571 FILLER_1_3458
*1572 FILLER_1_3464
*1573 FILLER_1_3473
*1574 FILLER_1_3485
*1575 FILLER_1_349
*1576 FILLER_1_3497
*1577 FILLER_1_3505
*1578 FILLER_1_3508
*1579 FILLER_1_3516
*1580 FILLER_1_3520
*1581 FILLER_1_3526
*1582 FILLER_1_3529
*1583 FILLER_1_3541
*1584 FILLER_1_3553
*1585 FILLER_1_3565
*1586 FILLER_1_3577
*1587 FILLER_1_3583
*1588 FILLER_1_3585
*1589 FILLER_1_3592
*1590 FILLER_1_3598