*SPEF "ieee 1481-1999"
*DESIGN "dg_pll"
*DATE "11:11:11 Fri 11 11, 1111"
*VENDOR "OpenRCX"
*PROGRAM "Parallel Extraction"
*VERSION "1.0"
*DESIGN_FLOW "NAME_SCOPE LOCAL" "PIN_CAP NONE"
*DIVIDER /
*DELIMITER :
*BUS_DELIMITER []
*T_UNIT 1 NS
*C_UNIT 1 PF
*R_UNIT 1 OHM
*L_UNIT 1 HENRY

*NAME_MAP
*3 clockp[0]
*4 clockp[1]
*5 dco
*6 div[0]
*7 div[1]
*8 div[2]
*9 div[3]
*10 div[4]
*11 enable
*12 ext_trim[0]
*13 ext_trim[10]
*14 ext_trim[11]
*15 ext_trim[12]
*16 ext_trim[13]
*17 ext_trim[14]
*18 ext_trim[15]
*19 ext_trim[16]
*20 ext_trim[17]
*21 ext_trim[18]
*22 ext_trim[19]
*23 ext_trim[1]
*24 ext_trim[20]
*25 ext_trim[21]
*26 ext_trim[22]
*27 ext_trim[23]
*28 ext_trim[24]
*29 ext_trim[25]
*30 ext_trim[2]
*31 ext_trim[3]
*32 ext_trim[4]
*33 ext_trim[5]
*34 ext_trim[6]
*35 ext_trim[7]
*36 ext_trim[8]
*37 ext_trim[9]
*38 osc
*39 resetb
*40 _000_
*41 _001_
*42 _002_
*43 _003_
*44 _004_
*45 _005_
*46 _006_
*47 _007_
*48 _008_
*49 _009_
*50 _010_
*51 _011_
*52 _012_
*53 _013_
*54 _014_
*55 _015_
*56 _016_
*57 _017_
*58 _018_
*59 _019_
*60 _020_
*61 _021_
*62 _022_
*63 _023_
*64 _024_
*65 _025_
*66 _026_
*67 _027_
*68 _028_
*69 _029_
*70 _030_
*71 _031_
*72 _032_
*73 _033_
*74 _034_
*75 _035_
*76 _036_
*77 _037_
*78 _038_
*79 _039_
*80 _040_
*81 _041_
*82 _042_
*83 _043_
*84 _044_
*85 _045_
*86 _046_
*87 _047_
*88 _048_
*89 _049_
*90 _050_
*91 _051_
*92 _052_
*93 _053_
*94 _054_
*95 _055_
*96 _056_
*97 _057_
*98 _058_
*99 _059_
*100 _060_
*101 _061_
*102 _062_
*103 _063_
*104 _064_
*105 _065_
*106 _066_
*107 _067_
*108 _068_
*109 _069_
*110 _070_
*111 _071_
*112 _072_
*113 _073_
*114 _074_
*115 _075_
*116 _076_
*117 _077_
*118 _078_
*119 _079_
*120 _080_
*121 _081_
*122 _082_
*123 _083_
*124 _084_
*125 _085_
*126 _086_
*127 _087_
*128 _088_
*129 _089_
*130 _090_
*131 _091_
*132 _092_
*133 _093_
*134 _094_
*135 _095_
*136 _096_
*137 _097_
*138 _098_
*139 _099_
*140 _100_
*141 _101_
*142 _102_
*143 _103_
*144 _104_
*145 _105_
*146 _106_
*147 _107_
*148 _108_
*149 _109_
*150 _110_
*151 _111_
*152 _112_
*153 _113_
*154 _114_
*155 _115_
*156 _116_
*157 _117_
*158 _118_
*159 _119_
*160 _120_
*161 _121_
*162 _122_
*163 _123_
*164 _124_
*165 _125_
*166 _126_
*167 _127_
*168 _128_
*169 _129_
*170 _130_
*171 _131_
*172 _132_
*173 _133_
*174 _134_
*175 _135_
*176 _136_
*177 _137_
*178 _138_
*179 _139_
*180 _140_
*181 _141_
*182 _142_
*183 _143_
*184 _144_
*185 _145_
*186 _146_
*187 _147_
*188 _148_
*189 _149_
*190 _150_
*191 _151_
*192 _152_
*193 _153_
*194 _154_
*195 _155_
*196 _156_
*197 _157_
*198 _158_
*199 _159_
*200 _160_
*201 _161_
*202 _162_
*203 _163_
*204 _164_
*205 _165_
*206 _166_
*207 _167_
*208 _168_
*209 _169_
*210 _170_
*211 _171_
*212 _172_
*213 _173_
*214 pll_control\.clock
*215 pll_control\.count0\[0\]
*216 pll_control\.count0\[1\]
*217 pll_control\.count0\[2\]
*218 pll_control\.count0\[3\]
*219 pll_control\.count0\[4\]
*220 pll_control\.count1\[0\]
*221 pll_control\.count1\[1\]
*222 pll_control\.count1\[2\]
*223 pll_control\.count1\[3\]
*224 pll_control\.count1\[4\]
*225 pll_control\.oscbuf\[0\]
*226 pll_control\.oscbuf\[1\]
*227 pll_control\.oscbuf\[2\]
*228 pll_control\.prep\[0\]
*229 pll_control\.prep\[1\]
*230 pll_control\.prep\[2\]
*231 pll_control\.tint\[0\]
*232 pll_control\.tint\[1\]
*233 pll_control\.tint\[2\]
*234 pll_control\.tint\[3\]
*235 pll_control\.tint\[4\]
*236 pll_control\.tval\[0\]
*237 pll_control\.tval\[1\]
*238 ringosc\.c\[0\]
*239 ringosc\.c\[1\]
*240 ringosc\.dstage\[0\]\.id\.d0
*241 ringosc\.dstage\[0\]\.id\.d1
*242 ringosc\.dstage\[0\]\.id\.d2
*243 ringosc\.dstage\[0\]\.id\.in
*244 ringosc\.dstage\[0\]\.id\.out
*245 ringosc\.dstage\[0\]\.id\.trim\[0\]
*246 ringosc\.dstage\[0\]\.id\.trim\[1\]
*247 ringosc\.dstage\[0\]\.id\.ts
*248 ringosc\.dstage\[10\]\.id\.d0
*249 ringosc\.dstage\[10\]\.id\.d1
*250 ringosc\.dstage\[10\]\.id\.d2
*251 ringosc\.dstage\[10\]\.id\.in
*252 ringosc\.dstage\[10\]\.id\.out
*253 ringosc\.dstage\[10\]\.id\.trim\[0\]
*254 ringosc\.dstage\[10\]\.id\.trim\[1\]
*255 ringosc\.dstage\[10\]\.id\.ts
*256 ringosc\.dstage\[11\]\.id\.d0
*257 ringosc\.dstage\[11\]\.id\.d1
*258 ringosc\.dstage\[11\]\.id\.d2
*259 ringosc\.dstage\[11\]\.id\.out
*260 ringosc\.dstage\[11\]\.id\.trim\[0\]
*261 ringosc\.dstage\[11\]\.id\.trim\[1\]
*262 ringosc\.dstage\[11\]\.id\.ts
*263 ringosc\.dstage\[1\]\.id\.d0
*264 ringosc\.dstage\[1\]\.id\.d1
*265 ringosc\.dstage\[1\]\.id\.d2
*266 ringosc\.dstage\[1\]\.id\.out
*267 ringosc\.dstage\[1\]\.id\.trim\[0\]
*268 ringosc\.dstage\[1\]\.id\.trim\[1\]
*269 ringosc\.dstage\[1\]\.id\.ts
*270 ringosc\.dstage\[2\]\.id\.d0
*271 ringosc\.dstage\[2\]\.id\.d1
*272 ringosc\.dstage\[2\]\.id\.d2
*273 ringosc\.dstage\[2\]\.id\.out
*274 ringosc\.dstage\[2\]\.id\.trim\[0\]
*275 ringosc\.dstage\[2\]\.id\.trim\[1\]
*276 ringosc\.dstage\[2\]\.id\.ts
*277 ringosc\.dstage\[3\]\.id\.d0
*278 ringosc\.dstage\[3\]\.id\.d1
*279 ringosc\.dstage\[3\]\.id\.d2
*280 ringosc\.dstage\[3\]\.id\.out
*281 ringosc\.dstage\[3\]\.id\.trim\[0\]
*282 ringosc\.dstage\[3\]\.id\.trim\[1\]
*283 ringosc\.dstage\[3\]\.id\.ts
*284 ringosc\.dstage\[4\]\.id\.d0
*285 ringosc\.dstage\[4\]\.id\.d1
*286 ringosc\.dstage\[4\]\.id\.d2
*287 ringosc\.dstage\[4\]\.id\.out
*288 ringosc\.dstage\[4\]\.id\.trim\[0\]
*289 ringosc\.dstage\[4\]\.id\.trim\[1\]
*290 ringosc\.dstage\[4\]\.id\.ts
*291 ringosc\.dstage\[5\]\.id\.d0
*292 ringosc\.dstage\[5\]\.id\.d1
*293 ringosc\.dstage\[5\]\.id\.d2
*294 ringosc\.dstage\[5\]\.id\.out
*295 ringosc\.dstage\[5\]\.id\.trim\[0\]
*296 ringosc\.dstage\[5\]\.id\.trim\[1\]
*297 ringosc\.dstage\[5\]\.id\.ts
*298 ringosc\.dstage\[6\]\.id\.d0
*299 ringosc\.dstage\[6\]\.id\.d1
*300 ringosc\.dstage\[6\]\.id\.d2
*301 ringosc\.dstage\[6\]\.id\.out
*302 ringosc\.dstage\[6\]\.id\.trim\[0\]
*303 ringosc\.dstage\[6\]\.id\.trim\[1\]
*304 ringosc\.dstage\[6\]\.id\.ts
*305 ringosc\.dstage\[7\]\.id\.d0
*306 ringosc\.dstage\[7\]\.id\.d1
*307 ringosc\.dstage\[7\]\.id\.d2
*308 ringosc\.dstage\[7\]\.id\.out
*309 ringosc\.dstage\[7\]\.id\.trim\[0\]
*310 ringosc\.dstage\[7\]\.id\.trim\[1\]
*311 ringosc\.dstage\[7\]\.id\.ts
*312 ringosc\.dstage\[8\]\.id\.d0
*313 ringosc\.dstage\[8\]\.id\.d1
*314 ringosc\.dstage\[8\]\.id\.d2
*315 ringosc\.dstage\[8\]\.id\.out
*316 ringosc\.dstage\[8\]\.id\.trim\[0\]
*317 ringosc\.dstage\[8\]\.id\.trim\[1\]
*318 ringosc\.dstage\[8\]\.id\.ts
*319 ringosc\.dstage\[9\]\.id\.d0
*320 ringosc\.dstage\[9\]\.id\.d1
*321 ringosc\.dstage\[9\]\.id\.d2
*322 ringosc\.dstage\[9\]\.id\.trim\[0\]
*323 ringosc\.dstage\[9\]\.id\.trim\[1\]
*324 ringosc\.dstage\[9\]\.id\.ts
*325 ringosc\.iss\.ctrl0
*326 ringosc\.iss\.d0
*327 ringosc\.iss\.d1
*328 ringosc\.iss\.d2
*329 ringosc\.iss\.one
*330 ringosc\.iss\.reset
*331 ringosc\.iss\.trim\[0\]
*332 ringosc\.iss\.trim\[1\]
*333 FILLER_0_10
*334 FILLER_0_108
*335 FILLER_0_113
*336 FILLER_0_123
*337 FILLER_0_134
*338 FILLER_0_141
*339 FILLER_0_166
*340 FILLER_0_169
*341 FILLER_0_178
*342 FILLER_0_18
*343 FILLER_0_188
*344 FILLER_0_25
*345 FILLER_0_29
*346 FILLER_0_3
*347 FILLER_0_34
*348 FILLER_0_51
*349 FILLER_0_55
*350 FILLER_0_57
*351 FILLER_0_65
*352 FILLER_0_79
*353 FILLER_0_83
*354 FILLER_0_85
*355 FILLER_0_96
*356 FILLER_10_12
*357 FILLER_10_124
*358 FILLER_10_135
*359 FILLER_10_139
*360 FILLER_10_141
*361 FILLER_10_150
*362 FILLER_10_156
*363 FILLER_10_16
*364 FILLER_10_178
*365 FILLER_10_187
*366 FILLER_10_24
*367 FILLER_10_29
*368 FILLER_10_3
*369 FILLER_10_49
*370 FILLER_10_61
*371 FILLER_10_68
*372 FILLER_10_79
*373 FILLER_10_83
*374 FILLER_10_85
*375 FILLER_10_90
*376 FILLER_10_99
*377 FILLER_11_103
*378 FILLER_11_111
*379 FILLER_11_113
*380 FILLER_11_123
*381 FILLER_11_131
*382 FILLER_11_153
*383 FILLER_11_16
*384 FILLER_11_164
*385 FILLER_11_169
*386 FILLER_11_177
*387 FILLER_11_187
*388 FILLER_11_27
*389 FILLER_11_3
*390 FILLER_11_31
*391 FILLER_11_35
*392 FILLER_11_48
*393 FILLER_11_57
*394 FILLER_11_66
*395 FILLER_11_70
*396 FILLER_11_78
*397 FILLER_11_84
*398 FILLER_11_9
*399 FILLER_12_102
*400 FILLER_12_110
*401 FILLER_12_12
*402 FILLER_12_135
*403 FILLER_12_139
*404 FILLER_12_141
*405 FILLER_12_16
*406 FILLER_12_164
*407 FILLER_12_173
*408 FILLER_12_177
*409 FILLER_12_187
*410 FILLER_12_24
*411 FILLER_12_29
*412 FILLER_12_3
*413 FILLER_12_49
*414 FILLER_12_61
*415 FILLER_12_68
*416 FILLER_12_79
*417 FILLER_12_83
*418 FILLER_12_85
*419 FILLER_12_90
*420 FILLER_13_103
*421 FILLER_13_111
*422 FILLER_13_113
*423 FILLER_13_124
*424 FILLER_13_135
*425 FILLER_13_146
*426 FILLER_13_156
*427 FILLER_13_16
*428 FILLER_13_165
*429 FILLER_13_169
*430 FILLER_13_178
*431 FILLER_13_187
*432 FILLER_13_27
*433 FILLER_13_3
*434 FILLER_13_31
*435 FILLER_13_35
*436 FILLER_13_48
*437 FILLER_13_57
*438 FILLER_13_66
*439 FILLER_13_70
*440 FILLER_13_78
*441 FILLER_13_84
*442 FILLER_13_9
*443 FILLER_14_116
*444 FILLER_14_12
*445 FILLER_14_124
*446 FILLER_14_138
*447 FILLER_14_141
*448 FILLER_14_148
*449 FILLER_14_16
*450 FILLER_14_177
*451 FILLER_14_188
*452 FILLER_14_24
*453 FILLER_14_29
*454 FILLER_14_3
*455 FILLER_14_49
*456 FILLER_14_61
*457 FILLER_14_68
*458 FILLER_14_79
*459 FILLER_14_83
*460 FILLER_14_85
*461 FILLER_14_90
*462 FILLER_14_99
*463 FILLER_15_10
*464 FILLER_15_108
*465 FILLER_15_113
*466 FILLER_15_127
*467 FILLER_15_144
*468 FILLER_15_153
*469 FILLER_15_162
*470 FILLER_15_169
*471 FILLER_15_177
*472 FILLER_15_186
*473 FILLER_15_23
*474 FILLER_15_27
*475 FILLER_15_3
*476 FILLER_15_38
*477 FILLER_15_44
*478 FILLER_15_54
*479 FILLER_15_57
*480 FILLER_15_86
*481 FILLER_15_94
*482 FILLER_16_108
*483 FILLER_16_119
*484 FILLER_16_138
*485 FILLER_16_141
*486 FILLER_16_149
*487 FILLER_16_158
*488 FILLER_16_171
*489 FILLER_16_180
*490 FILLER_16_188
*491 FILLER_16_19
*492 FILLER_16_27
*493 FILLER_16_29
*494 FILLER_16_3
*495 FILLER_16_40
*496 FILLER_16_48
*497 FILLER_16_62
*498 FILLER_16_79
*499 FILLER_16_83
*500 FILLER_16_85
*501 FILLER_16_9
*502 FILLER_16_97
*503 FILLER_17_107
*504 FILLER_17_11
*505 FILLER_17_111
*506 FILLER_17_113
*507 FILLER_17_119
*508 FILLER_17_129
*509 FILLER_17_142
*510 FILLER_17_151
*511 FILLER_17_160
*512 FILLER_17_169
*513 FILLER_17_176
*514 FILLER_17_180
*515 FILLER_17_186
*516 FILLER_17_20
*517 FILLER_17_28
*518 FILLER_17_3
*519 FILLER_17_39
*520 FILLER_17_52
*521 FILLER_17_57
*522 FILLER_17_67
*523 FILLER_17_71
*524 FILLER_17_81
*525 FILLER_17_95
*526 FILLER_18_108
*527 FILLER_18_118
*528 FILLER_18_135
*529 FILLER_18_139
*530 FILLER_18_141
*531 FILLER_18_148
*532 FILLER_18_15
*533 FILLER_18_157
*534 FILLER_18_161
*535 FILLER_18_167
*536 FILLER_18_176
*537 FILLER_18_185
*538 FILLER_18_189
*539 FILLER_18_26
*540 FILLER_18_29
*541 FILLER_18_3
*542 FILLER_18_41
*543 FILLER_18_53
*544 FILLER_18_57
*545 FILLER_18_66
*546 FILLER_18_77
*547 FILLER_18_83
*548 FILLER_18_85
*549 FILLER_18_96
*550 FILLER_19_109
*551 FILLER_19_113
*552 FILLER_19_128
*553 FILLER_19_139
*554 FILLER_19_148
*555 FILLER_19_157
*556 FILLER_19_16
*557 FILLER_19_166
*558 FILLER_19_169
*559 FILLER_19_176
*560 FILLER_19_188
*561 FILLER_19_24
*562 FILLER_19_3
*563 FILLER_19_36
*564 FILLER_19_42
*565 FILLER_19_52
*566 FILLER_19_57
*567 FILLER_19_67
*568 FILLER_19_78
*569 FILLER_19_84
*570 FILLER_19_98
*571 FILLER_1_110
*572 FILLER_1_113
*573 FILLER_1_12
*574 FILLER_1_128
*575 FILLER_1_141
*576 FILLER_1_166
*577 FILLER_1_169
*578 FILLER_1_178
*579 FILLER_1_188
*580 FILLER_1_20
*581 FILLER_1_27
*582 FILLER_1_3
*583 FILLER_1_34
*584 FILLER_1_51
*585 FILLER_1_55
*586 FILLER_1_57
*587 FILLER_1_68
*588 FILLER_1_72
*589 FILLER_1_8
*590 FILLER_1_83
*591 FILLER_1_93
*592 FILLER_20_10
*593 FILLER_20_109
*594 FILLER_20_113
*595 FILLER_20_121
*596 FILLER_20_130
*597 FILLER_20_138
*598 FILLER_20_141
*599 FILLER_20_148
*600 FILLER_20_160
*601 FILLER_20_164
*602 FILLER_20_170
*603 FILLER_20_182
*604 FILLER_20_22
*605 FILLER_20_29
*606 FILLER_20_3
*607 FILLER_20_39
*608 FILLER_20_48
*609 FILLER_20_59
*610 FILLER_20_70
*611 FILLER_20_81
*612 FILLER_20_85
*613 FILLER_20_91
*614 FILLER_20_99
*615 FILLER_21_103
*616 FILLER_21_111
*617 FILLER_21_113
*618 FILLER_21_120
*619 FILLER_21_129
*620 FILLER_21_133
*621 FILLER_21_139
*622 FILLER_21_14
*623 FILLER_21_148
*624 FILLER_21_160
*625 FILLER_21_169
*626 FILLER_21_181
*627 FILLER_21_189
*628 FILLER_21_26
*629 FILLER_21_3
*630 FILLER_21_39
*631 FILLER_21_50
*632 FILLER_21_57
*633 FILLER_21_66
*634 FILLER_21_76
*635 FILLER_21_85
*636 FILLER_21_94
*637 FILLER_22_103
*638 FILLER_22_109
*639 FILLER_22_121
*640 FILLER_22_129
*641 FILLER_22_136
*642 FILLER_22_141
*643 FILLER_22_15
*644 FILLER_22_153
*645 FILLER_22_165
*646 FILLER_22_177
*647 FILLER_22_189
*648 FILLER_22_26
*649 FILLER_22_29
*650 FILLER_22_3
*651 FILLER_22_33
*652 FILLER_22_41
*653 FILLER_22_52
*654 FILLER_22_63
*655 FILLER_22_7
*656 FILLER_22_71
*657 FILLER_22_78
*658 FILLER_22_85
*659 FILLER_22_92
*660 FILLER_22_99
*661 FILLER_23_104
*662 FILLER_23_113
*663 FILLER_23_125
*664 FILLER_23_137
*665 FILLER_23_14
*666 FILLER_23_149
*667 FILLER_23_161
*668 FILLER_23_167
*669 FILLER_23_169
*670 FILLER_23_181
*671 FILLER_23_189
*672 FILLER_23_22
*673 FILLER_23_3
*674 FILLER_23_32
*675 FILLER_23_43
*676 FILLER_23_53
*677 FILLER_23_57
*678 FILLER_23_65
*679 FILLER_23_74
*680 FILLER_23_83
*681 FILLER_23_92
*682 FILLER_24_104
*683 FILLER_24_116
*684 FILLER_24_128
*685 FILLER_24_13
*686 FILLER_24_141
*687 FILLER_24_153
*688 FILLER_24_165
*689 FILLER_24_177
*690 FILLER_24_189
*691 FILLER_24_24
*692 FILLER_24_29
*693 FILLER_24_3
*694 FILLER_24_38
*695 FILLER_24_50
*696 FILLER_24_59
*697 FILLER_24_68
*698 FILLER_24_81
*699 FILLER_24_85
*700 FILLER_24_92
*701 FILLER_25_109
*702 FILLER_25_113
*703 FILLER_25_125
*704 FILLER_25_137
*705 FILLER_25_149
*706 FILLER_25_161
*707 FILLER_25_167
*708 FILLER_25_169
*709 FILLER_25_18
*710 FILLER_25_181
*711 FILLER_25_189
*712 FILLER_25_24
*713 FILLER_25_3
*714 FILLER_25_32
*715 FILLER_25_42
*716 FILLER_25_46
*717 FILLER_25_52
*718 FILLER_25_57
*719 FILLER_25_64
*720 FILLER_25_73
*721 FILLER_25_85
*722 FILLER_25_97
*723 FILLER_26_10
*724 FILLER_26_109
*725 FILLER_26_121
*726 FILLER_26_133
*727 FILLER_26_139
*728 FILLER_26_141
*729 FILLER_26_153
*730 FILLER_26_165
*731 FILLER_26_177
*732 FILLER_26_189
*733 FILLER_26_21
*734 FILLER_26_27
*735 FILLER_26_29
*736 FILLER_26_3
*737 FILLER_26_36
*738 FILLER_26_44
*739 FILLER_26_50
*740 FILLER_26_59
*741 FILLER_26_71
*742 FILLER_26_83
*743 FILLER_26_85
*744 FILLER_26_97
*745 FILLER_27_109
*746 FILLER_27_113
*747 FILLER_27_125
*748 FILLER_27_137
*749 FILLER_27_141
*750 FILLER_27_153
*751 FILLER_27_165
*752 FILLER_27_169
*753 FILLER_27_17
*754 FILLER_27_181
*755 FILLER_27_189
*756 FILLER_27_26
*757 FILLER_27_29
*758 FILLER_27_3
*759 FILLER_27_36
*760 FILLER_27_45
*761 FILLER_27_53
*762 FILLER_27_57
*763 FILLER_27_69
*764 FILLER_27_81
*765 FILLER_27_85
*766 FILLER_27_97
*767 FILLER_2_102
*768 FILLER_2_113
*769 FILLER_2_12
*770 FILLER_2_138
*771 FILLER_2_141
*772 FILLER_2_150
*773 FILLER_2_154
*774 FILLER_2_16
*775 FILLER_2_176
*776 FILLER_2_187
*777 FILLER_2_24
*778 FILLER_2_29
*779 FILLER_2_3
*780 FILLER_2_49
*781 FILLER_2_74
*782 FILLER_2_82
*783 FILLER_2_85
*784 FILLER_2_96
*785 FILLER_3_103
*786 FILLER_3_110
*787 FILLER_3_113
*788 FILLER_3_123
*789 FILLER_3_144
*790 FILLER_3_159
*791 FILLER_3_16
*792 FILLER_3_167
*793 FILLER_3_169
*794 FILLER_3_186
*795 FILLER_3_27
*796 FILLER_3_3
*797 FILLER_3_31
*798 FILLER_3_35
*799 FILLER_3_54
*800 FILLER_3_57
*801 FILLER_3_66
*802 FILLER_3_70
*803 FILLER_3_78
*804 FILLER_3_84
*805 FILLER_3_9
*806 FILLER_4_115
*807 FILLER_4_12
*808 FILLER_4_128
*809 FILLER_4_138
*810 FILLER_4_141
*811 FILLER_4_151
*812 FILLER_4_16
*813 FILLER_4_176
*814 FILLER_4_187
*815 FILLER_4_24
*816 FILLER_4_29
*817 FILLER_4_3
*818 FILLER_4_49
*819 FILLER_4_61
*820 FILLER_4_68
*821 FILLER_4_79
*822 FILLER_4_83
*823 FILLER_4_85
*824 FILLER_4_90
*825 FILLER_5_103
*826 FILLER_5_111
*827 FILLER_5_113
*828 FILLER_5_136
*829 FILLER_5_16
*830 FILLER_5_161
*831 FILLER_5_167
*832 FILLER_5_169
*833 FILLER_5_178
*834 FILLER_5_188
*835 FILLER_5_27
*836 FILLER_5_3
*837 FILLER_5_31
*838 FILLER_5_35
*839 FILLER_5_52
*840 FILLER_5_57
*841 FILLER_5_66
*842 FILLER_5_70
*843 FILLER_5_78
*844 FILLER_5_84
*845 FILLER_5_9
*846 FILLER_6_12
*847 FILLER_6_120
*848 FILLER_6_133
*849 FILLER_6_139
*850 FILLER_6_141
*851 FILLER_6_150
*852 FILLER_6_16
*853 FILLER_6_175
*854 FILLER_6_186
*855 FILLER_6_24
*856 FILLER_6_29
*857 FILLER_6_3
*858 FILLER_6_49
*859 FILLER_6_61
*860 FILLER_6_68
*861 FILLER_6_79
*862 FILLER_6_83
*863 FILLER_6_85
*864 FILLER_6_90
*865 FILLER_6_98
*866 FILLER_7_103
*867 FILLER_7_110
*868 FILLER_7_113
*869 FILLER_7_142
*870 FILLER_7_151
*871 FILLER_7_16
*872 FILLER_7_163
*873 FILLER_7_167
*874 FILLER_7_169
*875 FILLER_7_188
*876 FILLER_7_27
*877 FILLER_7_3
*878 FILLER_7_31
*879 FILLER_7_35
*880 FILLER_7_43
*881 FILLER_7_54
*882 FILLER_7_57
*883 FILLER_7_66
*884 FILLER_7_70
*885 FILLER_7_78
*886 FILLER_7_84
*887 FILLER_7_9
*888 FILLER_8_115
*889 FILLER_8_12
*890 FILLER_8_128
*891 FILLER_8_137
*892 FILLER_8_141
*893 FILLER_8_16
*894 FILLER_8_164
*895 FILLER_8_172
*896 FILLER_8_188
*897 FILLER_8_24
*898 FILLER_8_29
*899 FILLER_8_3
*900 FILLER_8_49
*901 FILLER_8_61
*902 FILLER_8_68
*903 FILLER_8_79
*904 FILLER_8_83
*905 FILLER_8_85
*906 FILLER_8_90
*907 FILLER_9_103
*908 FILLER_9_111
*909 FILLER_9_113
*910 FILLER_9_119
*911 FILLER_9_141
*912 FILLER_9_16
*913 FILLER_9_166
*914 FILLER_9_169
*915 FILLER_9_175
*916 FILLER_9_185
*917 FILLER_9_189
*918 FILLER_9_27
*919 FILLER_9_3
*920 FILLER_9_31
*921 FILLER_9_35
*922 FILLER_9_43
*923 FILLER_9_54
*924 FILLER_9_57
*925 FILLER_9_66
*926 FILLER_9_70
*927 FILLER_9_78
*928 FILLER_9_84
*929 FILLER_9_9
*930 PHY_0
*931 PHY_1
*932 PHY_10
*933 PHY_11
*934 PHY_12
*935 PHY_13
*936 PHY_14
*937 PHY_15
*938 PHY_16
*939 PHY_17
*940 PHY_18
*941 PHY_19
*942 PHY_2
*943 PHY_20
*944 PHY_21
*945 PHY_22
*946 PHY_23
*947 PHY_24
*948 PHY_25
*949 PHY_26
*950 PHY_27
*951 PHY_28
*952 PHY_29
*953 PHY_3
*954 PHY_30
*955 PHY_31
*956 PHY_32
*957 PHY_33
*958 PHY_34
*959 PHY_35
*960 PHY_36
*961 PHY_37
*962 PHY_38
*963 PHY_39
*964 PHY_4
*965 PHY_40
*966 PHY_41
*967 PHY_42
*968 PHY_43
*969 PHY_44
*970 PHY_45
*971 PHY_46
*972 PHY_47
*973 PHY_48
*974 PHY_49
*975 PHY_5
*976 PHY_50
*977 PHY_51
*978 PHY_52
*979 PHY_53
*980 PHY_54
*981 PHY_55
*982 PHY_6
*983 PHY_7
*984 PHY_8
*985 PHY_9
*986 TAP_100
*987 TAP_101
*988 TAP_102
*989 TAP_103
*990 TAP_104
*991 TAP_105
*992 TAP_106
*993 TAP_107
*994 TAP_108
*995 TAP_109
*996 TAP_110
*997 TAP_111
*998 TAP_112
*999 TAP_113
*1000 TAP_114
*1001 TAP_115
*1002 TAP_116
*1003 TAP_117
*1004 TAP_118
*1005 TAP_119
*1006 TAP_120
*1007 TAP_121
*1008 TAP_122
*1009 TAP_123
*1010 TAP_124
*1011 TAP_125
*1012 TAP_126
*1013 TAP_127
*1014 TAP_128
*1015 TAP_129
*1016 TAP_130
*1017 TAP_131
*1018 TAP_132
*1019 TAP_133
*1020 TAP_134
*1021 TAP_135
*1022 TAP_136
*1023 TAP_137
*1024 TAP_138
*1025 TAP_139
*1026 TAP_140
*1027 TAP_141
*1028 TAP_142
*1029 TAP_143
*1030 TAP_144
*1031 TAP_145
*1032 TAP_56
*1033 TAP_57
*1034 TAP_58
*1035 TAP_59
*1036 TAP_60
*1037 TAP_61
*1038 TAP_62
*1039 TAP_63
*1040 TAP_64
*1041 TAP_65
*1042 TAP_66
*1043 TAP_67
*1044 TAP_68
*1045 TAP_69
*1046 TAP_70
*1047 TAP_71
*1048 TAP_72
*1049 TAP_73
*1050 TAP_74
*1051 TAP_75
*1052 TAP_76
*1053 TAP_77
*1054 TAP_78
*1055 TAP_79
*1056 TAP_80
*1057 TAP_81
*1058 TAP_82
*1059 TAP_83
*1060 TAP_84
*1061 TAP_85
*1062 TAP_86
*1063 TAP_87
*1064 TAP_88
*1065 TAP_89
*1066 TAP_90
*1067 TAP_91
*1068 TAP_92
*1069 TAP_93
*1070 TAP_94
*1071 TAP_95
*1072 TAP_96
*1073 TAP_97
*1074 TAP_98
*1075 TAP_99
*1076 _174_
*1077 _175_
*1078 _176_
*1079 _177_
*1080 _178_
*1081 _179_
*1082 _180_
*1083 _181_
*1084 _182_
*1085 _183_
*1086 _184_
*1087 _185_
*1088 _186_
*1089 _187_
*1090 _188_
*1091 _189_
*1092 _190_
*1093 _191_
*1094 _192_
*1095 _193_
*1096 _194_
*1097 _195_
*1098 _196_
*1099 _197_
*1100 _198_
*1101 _199_
*1102 _200_
*1103 _201_
*1104 _202_
*1105 _203_
*1106 _204_
*1107 _205_
*1108 _206_
*1109 _207_
*1110 _208_
*1111 _209_
*1112 _210_
*1113 _211_
*1114 _212_
*1115 _213_
*1116 _214_
*1117 _215_
*1118 _216_
*1119 _217_
*1120 _218_
*1121 _219_
*1122 _220_
*1123 _221_
*1124 _222_
*1125 _223_
*1126 _224_
*1127 _225_
*1128 _226_
*1129 _227_
*1130 _228_
*1131 _229_
*1132 _230_
*1133 _231_
*1134 _232_
*1135 _233_
*1136 _234_
*1137 _235_
*1138 _236_
*1139 _237_
*1140 _238_
*1141 _239_
*1142 _240_
*1143 _241_
*1144 _242_
*1145 _243_
*1146 _244_
*1147 _245_
*1148 _246_
*1149 _247_
*1150 _248_
*1151 _249_
*1152 _250_
*1153 _251_
*1154 _252_
*1155 _253_
*1156 _254_
*1157 _255_
*1158 _256_
*1159 _257_
*1160 _258_
*1161 _259_
*1162 _260_
*1163 _261_
*1164 _262_
*1165 _263_
*1166 _264_
*1167 _265_
*1168 _266_
*1169 _267_
*1170 _268_
*1171 _269_
*1172 _270_
*1173 _271_
*1174 _272_
*1175 _273_
*1176 _274_
*1177 _275_
*1178 _276_
*1179 _277_
*1180 _278_
*1181 _279_
*1182 _280_
*1183 _281_
*1184 _282_
*1185 _283_
*1186 _284_
*1187 _285_
*1188 _286_
*1189 _287_
*1190 _288_
*1191 _289_
*1192 _290_
*1193 _291_
*1194 _292_
*1195 _293_
*1196 _294_
*1197 _295_
*1198 _296_
*1199 _297_
*1200 _298_
*1201 _299_
*1202 _300_
*1203 _301_
*1204 _302_
*1205 _303_
*1206 _304_
*1207 _305_
*1208 _306_
*1209 _307_
*1210 _308_
*1211 _309_
*1212 _310_
*1213 _311_
*1214 _312_
*1215 _313_
*1216 _314_
*1217 _315_
*1218 _316_
*1219 _317_
*1220 _318_
*1221 _319_
*1222 _320_
*1223 _321_
*1224 _322_
*1225 _323_
*1226 _324_
*1227 _325_
*1228 _326_
*1229 _327_
*1230 _328_
*1231 _329_
*1232 _330_
*1233 _331_
*1234 _332_
*1235 _333_
*1236 _334_
*1237 _335_
*1238 _336_
*1239 _337_
*1240 _338_
*1241 _339_
*1242 _340_
*1243 _341_
*1244 _342_
*1245 _343_
*1246 _344_
*1247 _345_
*1248 _346_
*1249 _347_
*1250 _348_
*1251 _349_
*1252 _350_
*1253 _351_
*1254 _352_
*1255 _353_
*1256 _354_
*1257 _355_
*1258 _356_
*1259 _357_
*1260 _358_
*1261 _359_
*1262 _360_
*1263 _361_
*1264 _362_
*1265 _363_
*1266 _364_
*1267 _365_
*1268 _366_
*1269 _367_
*1270 _368_
*1271 _369_
*1272 _370_
*1273 _371_
*1274 _372_
*1275 _373_
*1276 _374_
*1277 _375_
*1278 _376_
*1279 _377_
*1280 _378_
*1281 _379_
*1282 _380_
*1283 _381_
*1284 _382_
*1285 _383_
*1286 _384_
*1287 _385_
*1288 _386_
*1289 _387_
*1290 _388_
*1291 _389_
*1292 _390_
*1293 _391_
*1294 _392_
*1295 _393_
*1296 _394_
*1297 _395_
*1298 _396_
*1299 _397_
*1300 _398_
*1301 ringosc\.dstage\[0\]\.id\.delaybuf0
*1302 ringosc\.dstage\[0\]\.id\.delaybuf1
*1303 ringosc\.dstage\[0\]\.id\.delayen0
*1304 ringosc\.dstage\[0\]\.id\.delayen1
*1305 ringosc\.dstage\[0\]\.id\.delayenb0
*1306 ringosc\.dstage\[0\]\.id\.delayenb1
*1307 ringosc\.dstage\[0\]\.id\.delayint0
*1308 ringosc\.dstage\[10\]\.id\.delaybuf0
*1309 ringosc\.dstage\[10\]\.id\.delaybuf1
*1310 ringosc\.dstage\[10\]\.id\.delayen0
*1311 ringosc\.dstage\[10\]\.id\.delayen1
*1312 ringosc\.dstage\[10\]\.id\.delayenb0
*1313 ringosc\.dstage\[10\]\.id\.delayenb1
*1314 ringosc\.dstage\[10\]\.id\.delayint0
*1315 ringosc\.dstage\[11\]\.id\.delaybuf0
*1316 ringosc\.dstage\[11\]\.id\.delaybuf1
*1317 ringosc\.dstage\[11\]\.id\.delayen0
*1318 ringosc\.dstage\[11\]\.id\.delayen1
*1319 ringosc\.dstage\[11\]\.id\.delayenb0
*1320 ringosc\.dstage\[11\]\.id\.delayenb1
*1321 ringosc\.dstage\[11\]\.id\.delayint0
*1322 ringosc\.dstage\[1\]\.id\.delaybuf0
*1323 ringosc\.dstage\[1\]\.id\.delaybuf1
*1324 ringosc\.dstage\[1\]\.id\.delayen0
*1325 ringosc\.dstage\[1\]\.id\.delayen1
*1326 ringosc\.dstage\[1\]\.id\.delayenb0
*1327 ringosc\.dstage\[1\]\.id\.delayenb1
*1328 ringosc\.dstage\[1\]\.id\.delayint0
*1329 ringosc\.dstage\[2\]\.id\.delaybuf0
*1330 ringosc\.dstage\[2\]\.id\.delaybuf1
*1331 ringosc\.dstage\[2\]\.id\.delayen0
*1332 ringosc\.dstage\[2\]\.id\.delayen1
*1333 ringosc\.dstage\[2\]\.id\.delayenb0
*1334 ringosc\.dstage\[2\]\.id\.delayenb1
*1335 ringosc\.dstage\[2\]\.id\.delayint0
*1336 ringosc\.dstage\[3\]\.id\.delaybuf0
*1337 ringosc\.dstage\[3\]\.id\.delaybuf1
*1338 ringosc\.dstage\[3\]\.id\.delayen0
*1339 ringosc\.dstage\[3\]\.id\.delayen1
*1340 ringosc\.dstage\[3\]\.id\.delayenb0
*1341 ringosc\.dstage\[3\]\.id\.delayenb1
*1342 ringosc\.dstage\[3\]\.id\.delayint0
*1343 ringosc\.dstage\[4\]\.id\.delaybuf0
*1344 ringosc\.dstage\[4\]\.id\.delaybuf1
*1345 ringosc\.dstage\[4\]\.id\.delayen0
*1346 ringosc\.dstage\[4\]\.id\.delayen1
*1347 ringosc\.dstage\[4\]\.id\.delayenb0
*1348 ringosc\.dstage\[4\]\.id\.delayenb1
*1349 ringosc\.dstage\[4\]\.id\.delayint0
*1350 ringosc\.dstage\[5\]\.id\.delaybuf0
*1351 ringosc\.dstage\[5\]\.id\.delaybuf1
*1352 ringosc\.dstage\[5\]\.id\.delayen0
*1353 ringosc\.dstage\[5\]\.id\.delayen1
*1354 ringosc\.dstage\[5\]\.id\.delayenb0
*1355 ringosc\.dstage\[5\]\.id\.delayenb1
*1356 ringosc\.dstage\[5\]\.id\.delayint0
*1357 ringosc\.dstage\[6\]\.id\.delaybuf0
*1358 ringosc\.dstage\[6\]\.id\.delaybuf1
*1359 ringosc\.dstage\[6\]\.id\.delayen0
*1360 ringosc\.dstage\[6\]\.id\.delayen1
*1361 ringosc\.dstage\[6\]\.id\.delayenb0
*1362 ringosc\.dstage\[6\]\.id\.delayenb1
*1363 ringosc\.dstage\[6\]\.id\.delayint0
*1364 ringosc\.dstage\[7\]\.id\.delaybuf0
*1365 ringosc\.dstage\[7\]\.id\.delaybuf1
*1366 ringosc\.dstage\[7\]\.id\.delayen0
*1367 ringosc\.dstage\[7\]\.id\.delayen1
*1368 ringosc\.dstage\[7\]\.id\.delayenb0
*1369 ringosc\.dstage\[7\]\.id\.delayenb1
*1370 ringosc\.dstage\[7\]\.id\.delayint0
*1371 ringosc\.dstage\[8\]\.id\.delaybuf0
*1372 ringosc\.dstage\[8\]\.id\.delaybuf1
*1373 ringosc\.dstage\[8\]\.id\.delayen0
*1374 ringosc\.dstage\[8\]\.id\.delayen1
*1375 ringosc\.dstage\[8\]\.id\.delayenb0
*1376 ringosc\.dstage\[8\]\.id\.delayenb1
*1377 ringosc\.dstage\[8\]\.id\.delayint0
*1378 ringosc\.dstage\[9\]\.id\.delaybuf0
*1379 ringosc\.dstage\[9\]\.id\.delaybuf1
*1380 ringosc\.dstage\[9\]\.id\.delayen0
*1381 ringosc\.dstage\[9\]\.id\.delayen1
*1382 ringosc\.dstage\[9\]\.id\.delayenb0
*1383 ringosc\.dstage\[9\]\.id\.delayenb1
*1384 ringosc\.dstage\[9\]\.id\.delayint0
*1385 ringosc\.ibufp00
*1386 ringosc\.ibufp01
*1387 ringosc\.ibufp10
*1388 ringosc\.ibufp11
*1389 ringosc\.iss\.const1
*1390 ringosc\.iss\.ctrlen0
*1391 ringosc\.iss\.delaybuf0
*1392 ringosc\.iss\.delayen0
*1393 ringosc\.iss\.delayen1
*1394 ringosc\.iss\.delayenb0
*1395 ringosc\.iss\.delayenb1
*1396 ringosc\.iss\.delayint0
*1397 ringosc\.iss\.reseten0

*PORTS
clockp[0] O
clockp[1] O
dco I
div[0] I
div[1] I
div[2] I
div[3] I
div[4] I
enable I
ext_trim[0] I
ext_trim[10] I
ext_trim[11] I
ext_trim[12] I
ext_trim[13] I
ext_trim[14] I
ext_trim[15] I
ext_trim[16] I
ext_trim[17] I
ext_trim[18] I
ext_trim[19] I
ext_trim[1] I
ext_trim[20] I
ext_trim[21] I
ext_trim[22] I
ext_trim[23] I
ext_trim[24] I
ext_trim[25] I
ext_trim[2] I
ext_trim[3] I
ext_trim[4] I
ext_trim[5] I
ext_trim[6] I
ext_trim[7] I
ext_trim[8] I
ext_trim[9] I
osc I
resetb I

*D_NET *3 0.0148216
*CONN
*P clockp[0] O
*I *1300:X O *D sky130_fd_sc_hd__buf_2
*CAP
1 clockp[0] 0.0002099
2 *1300:X 0.00112572
3 *3:12 0.00144516
4 *3:6 0.00236098
5 clockp[0] clockp[1] 0.000839172
6 clockp[0] *9:13 1.36077e-05
7 clockp[0] *10:13 0.00081195
8 *3:6 *1128:A1 7.15687e-05
9 *3:6 *1152:A2 0.000131377
10 *3:6 *1152:B1 3.33491e-05
11 *3:6 *1243:A3 0.000162728
12 *3:6 *6:14 0
13 *3:6 *6:32 0.00202223
14 *3:6 *55:48 0.000822842
15 *3:6 *65:11 1.81709e-05
16 *3:6 *86:8 5.59677e-05
17 *3:6 *110:21 0.000301018
18 *3:6 *132:22 9.8532e-05
19 *3:6 *155:12 0.000472178
20 *3:12 clockp[1] 0
21 *3:12 *6:14 0
22 *3:12 *9:13 2.06178e-05
23 *3:12 *10:13 0.000330645
24 *3:12 *25:11 0.0032856
25 *3:12 *25:16 0
26 *3:12 *125:9 0.000188285
*RES
1 *1300:X *3:6 47.3179 
2 *3:6 *3:12 46.7232 
3 *3:12 clockp[0] 5.63153 
*END

*D_NET *4 0.00375339
*CONN
*P clockp[1] O
*I *1388:Y O *D sky130_fd_sc_hd__clkinv_8
*CAP
1 clockp[1] 0.00119378
2 *1388:Y 0.00119378
3 clockp[1] *1397:A 6.05161e-06
4 clockp[1] *5:18 4.51641e-05
5 clockp[1] *9:13 0
6 clockp[1] *25:16 0.000394712
7 clockp[1] *176:37 8.07313e-05
8 clockp[0] clockp[1] 0.000839172
9 *3:12 clockp[1] 0
*RES
1 *1388:Y clockp[1] 32.7485 
*END

*D_NET *5 0.0849276
*CONN
*P dco I
*I *1243:B2 I *D sky130_fd_sc_hd__a32o_2
*I *1252:B2 I *D sky130_fd_sc_hd__a32o_2
*I *1244:B2 I *D sky130_fd_sc_hd__a32o_2
*I *1231:B2 I *D sky130_fd_sc_hd__a32o_2
*I *1263:A I *D sky130_fd_sc_hd__nor2_2
*I *1261:A I *D sky130_fd_sc_hd__nor2_2
*I *1268:A I *D sky130_fd_sc_hd__nor2_2
*I *1267:A I *D sky130_fd_sc_hd__nor2_2
*I *1262:A I *D sky130_fd_sc_hd__nor2_2
*I *1273:A I *D sky130_fd_sc_hd__nor2_2
*I *1211:A1 I *D sky130_fd_sc_hd__a21o_2
*I *1200:B1 I *D sky130_fd_sc_hd__a21oi_2
*I *1210:A1 I *D sky130_fd_sc_hd__a22o_2
*I *1207:A1 I *D sky130_fd_sc_hd__a221o_2
*I *1241:A1 I *D sky130_fd_sc_hd__a22o_2
*I *1238:B2 I *D sky130_fd_sc_hd__a32o_2
*I *1240:B2 I *D sky130_fd_sc_hd__a32o_2
*I *1233:B2 I *D sky130_fd_sc_hd__a32o_2
*I *1213:B2 I *D sky130_fd_sc_hd__a32o_2
*I *1269:A I *D sky130_fd_sc_hd__nor2_2
*I *1208:A1 I *D sky130_fd_sc_hd__a21o_2
*I *1191:A1 I *D sky130_fd_sc_hd__a21o_2
*I *1193:A I *D sky130_fd_sc_hd__nand2_2
*I *1192:A1 I *D sky130_fd_sc_hd__a21o_2
*I *1183:A2 I *D sky130_fd_sc_hd__a21o_2
*I *1216:A1 I *D sky130_fd_sc_hd__a21o_2
*I *1203:A1 I *D sky130_fd_sc_hd__a21o_2
*I *1196:A1 I *D sky130_fd_sc_hd__a22o_2
*I *1234:A1 I *D sky130_fd_sc_hd__a22o_2
*I *1215:A1 I *D sky130_fd_sc_hd__a21o_2
*I *1194:A1 I *D sky130_fd_sc_hd__o21ai_2
*I *1182:B1 I *D sky130_fd_sc_hd__a21oi_2
*I *1204:B I *D sky130_fd_sc_hd__or2_2
*I *1274:A I *D sky130_fd_sc_hd__nor2_2
*I *1264:A I *D sky130_fd_sc_hd__nor2_2
*I *1275:A I *D sky130_fd_sc_hd__nor2_2
*I *1271:A I *D sky130_fd_sc_hd__nor2_2
*I *1270:A I *D sky130_fd_sc_hd__nor2_2
*I *1265:A I *D sky130_fd_sc_hd__nor2_2
*I *1266:A I *D sky130_fd_sc_hd__nor2_2
*I *1272:A I *D sky130_fd_sc_hd__nor2_2
*I *1255:A I *D sky130_fd_sc_hd__nor2_2
*I *1257:A I *D sky130_fd_sc_hd__nor2_2
*I *1260:A I *D sky130_fd_sc_hd__nor2_2
*I *1258:A I *D sky130_fd_sc_hd__nor2_2
*I *1259:A I *D sky130_fd_sc_hd__nor2_2
*I *1254:A I *D sky130_fd_sc_hd__nor2_2
*I *1245:A1 I *D sky130_fd_sc_hd__a21o_2
*I *1276:A I *D sky130_fd_sc_hd__nor2_2
*I *1256:A I *D sky130_fd_sc_hd__nor2_2
*I *1079:A I *D sky130_fd_sc_hd__inv_2
*I *1250:B2 I *D sky130_fd_sc_hd__a32o_2
*CAP
1 dco 0.00124634
2 *1243:B2 9.34755e-05
3 *1252:B2 7.54007e-05
4 *1244:B2 0.000390282
5 *1231:B2 8.09468e-05
6 *1263:A 0
7 *1261:A 0
8 *1268:A 0
9 *1267:A 0.000201397
10 *1262:A 0
11 *1273:A 0
12 *1211:A1 0
13 *1200:B1 7.27607e-05
14 *1210:A1 2.37855e-05