*SPEF "ieee 1481-1999"
*DESIGN "user_project_wrapper"
*DATE "11:11:11 Fri 11 11, 1111"
*VENDOR "OpenRCX"
*PROGRAM "Parallel Extraction"
*VERSION "1.0"
*DESIGN_FLOW "NAME_SCOPE LOCAL" "PIN_CAP NONE"
*DIVIDER /
*DELIMITER :
*BUS_DELIMITER []
*T_UNIT 1 NS
*C_UNIT 1 PF
*R_UNIT 1 OHM
*L_UNIT 1 HENRY

*NAME_MAP
*1 analog_io[0]
*2 analog_io[10]
*3 analog_io[11]
*4 analog_io[12]
*5 analog_io[13]
*6 analog_io[14]
*7 analog_io[15]
*8 analog_io[16]
*9 analog_io[17]
*10 analog_io[18]
*11 analog_io[19]
*12 analog_io[1]
*13 analog_io[20]
*14 analog_io[21]
*15 analog_io[22]
*16 analog_io[23]
*17 analog_io[24]
*18 analog_io[25]
*19 analog_io[26]
*20 analog_io[27]
*21 analog_io[28]
*22 analog_io[2]
*23 analog_io[3]
*24 analog_io[4]
*25 analog_io[5]
*26 analog_io[6]
*27 analog_io[7]
*28 analog_io[8]
*29 analog_io[9]
*30 io_in[0]
*31 io_in[10]
*32 io_in[11]
*33 io_in[12]
*34 io_in[13]
*35 io_in[14]
*36 io_in[15]
*37 io_in[16]
*38 io_in[17]
*39 io_in[18]
*40 io_in[19]
*41 io_in[1]
*42 io_in[20]
*43 io_in[21]
*44 io_in[22]
*45 io_in[23]
*46 io_in[24]
*47 io_in[25]
*48 io_in[26]
*49 io_in[27]
*50 io_in[28]
*51 io_in[29]
*52 io_in[2]
*53 io_in[30]
*54 io_in[31]
*55 io_in[32]
*56 io_in[33]
*57 io_in[34]
*58 io_in[35]
*59 io_in[36]
*60 io_in[37]
*61 io_in[3]
*62 io_in[4]
*63 io_in[5]
*64 io_in[6]
*65 io_in[7]
*66 io_in[8]
*67 io_in[9]
*68 io_oeb[0]
*69 io_oeb[10]
*70 io_oeb[11]
*71 io_oeb[12]
*72 io_oeb[13]
*73 io_oeb[14]
*74 io_oeb[15]
*75 io_oeb[16]
*76 io_oeb[17]
*77 io_oeb[18]
*78 io_oeb[19]
*79 io_oeb[1]
*80 io_oeb[20]
*81 io_oeb[21]
*82 io_oeb[22]
*83 io_oeb[23]
*84 io_oeb[24]
*85 io_oeb[25]
*86 io_oeb[26]
*87 io_oeb[27]
*88 io_oeb[28]
*89 io_oeb[29]
*90 io_oeb[2]
*91 io_oeb[30]
*92 io_oeb[31]
*93 io_oeb[32]
*94 io_oeb[33]
*95 io_oeb[34]
*96 io_oeb[35]
*97 io_oeb[36]
*98 io_oeb[37]
*99 io_oeb[3]
*100 io_oeb[4]
*101 io_oeb[5]
*102 io_oeb[6]
*103 io_oeb[7]
*104 io_oeb[8]
*105 io_oeb[9]
*106 io_out[0]
*107 io_out[10]
*108 io_out[11]
*109 io_out[12]
*110 io_out[13]
*111 io_out[14]
*112 io_out[15]
*113 io_out[16]
*114 io_out[17]
*115 io_out[18]
*116 io_out[19]
*117 io_out[1]
*118 io_out[20]
*119 io_out[21]
*120 io_out[22]
*121 io_out[23]
*122 io_out[24]
*123 io_out[25]
*124 io_out[26]
*125 io_out[27]
*126 io_out[28]
*127 io_out[29]
*128 io_out[2]
*129 io_out[30]
*130 io_out[31]
*131 io_out[32]
*132 io_out[33]
*133 io_out[34]
*134 io_out[35]
*135 io_out[36]
*136 io_out[37]
*137 io_out[3]
*138 io_out[4]
*139 io_out[5]
*140 io_out[6]
*141 io_out[7]
*142 io_out[8]
*143 io_out[9]
*144 la_data_in[0]
*145 la_data_in[100]
*146 la_data_in[101]
*147 la_data_in[102]
*148 la_data_in[103]
*149 la_data_in[104]
*150 la_data_in[105]
*151 la_data_in[106]
*152 la_data_in[107]
*153 la_data_in[108]
*154 la_data_in[109]
*155 la_data_in[10]
*156 la_data_in[110]
*157 la_data_in[111]
*158 la_data_in[112]
*159 la_data_in[113]
*160 la_data_in[114]
*161 la_data_in[115]
*162 la_data_in[116]
*163 la_data_in[117]
*164 la_data_in[118]
*165 la_data_in[119]
*166 la_data_in[11]
*167 la_data_in[120]
*168 la_data_in[121]
*169 la_data_in[122]
*170 la_data_in[123]
*171 la_data_in[124]
*172 la_data_in[125]
*173 la_data_in[126]
*174 la_data_in[127]
*175 la_data_in[12]
*176 la_data_in[13]
*177 la_data_in[14]
*178 la_data_in[15]
*179 la_data_in[16]
*180 la_data_in[17]
*181 la_data_in[18]
*182 la_data_in[19]
*183 la_data_in[1]
*184 la_data_in[20]
*185 la_data_in[21]
*186 la_data_in[22]
*187 la_data_in[23]
*188 la_data_in[24]
*189 la_data_in[25]
*190 la_data_in[26]
*191 la_data_in[27]
*192 la_data_in[28]
*193 la_data_in[29]
*194 la_data_in[2]
*195 la_data_in[30]
*196 la_data_in[31]
*197 la_data_in[32]
*198 la_data_in[33]
*199 la_data_in[34]
*200 la_data_in[35]
*201 la_data_in[36]
*202 la_data_in[37]
*203 la_data_in[38]
*204 la_data_in[39]
*205 la_data_in[3]
*206 la_data_in[40]
*207 la_data_in[41]
*208 la_data_in[42]
*209 la_data_in[43]
*210 la_data_in[44]
*211 la_data_in[45]
*212 la_data_in[46]
*213 la_data_in[47]
*214 la_data_in[48]
*215 la_data_in[49]
*216 la_data_in[4]
*217 la_data_in[50]
*218 la_data_in[51]
*219 la_data_in[52]
*220 la_data_in[53]
*221 la_data_in[54]
*222 la_data_in[55]
*223 la_data_in[56]
*224 la_data_in[57]
*225 la_data_in[58]
*226 la_data_in[59]
*227 la_data_in[5]
*228 la_data_in[60]
*229 la_data_in[61]
*230 la_data_in[62]
*231 la_data_in[63]
*232 la_data_in[64]
*233 la_data_in[65]
*234 la_data_in[66]
*235 la_data_in[67]
*236 la_data_in[68]
*237 la_data_in[69]
*238 la_data_in[6]
*239 la_data_in[70]
*240 la_data_in[71]
*241 la_data_in[72]
*242 la_data_in[73]
*243 la_data_in[74]
*244 la_data_in[75]
*245 la_data_in[76]
*246 la_data_in[77]
*247 la_data_in[78]
*248 la_data_in[79]
*249 la_data_in[7]
*250 la_data_in[80]
*251 la_data_in[81]
*252 la_data_in[82]
*253 la_data_in[83]
*254 la_data_in[84]
*255 la_data_in[85]
*256 la_data_in[86]
*257 la_data_in[87]
*258 la_data_in[88]
*259 la_data_in[89]
*260 la_data_in[8]
*261 la_data_in[90]
*262 la_data_in[91]
*263 la_data_in[92]
*264 la_data_in[93]
*265 la_data_in[94]
*266 la_data_in[95]
*267 la_data_in[96]
*268 la_data_in[97]
*269 la_data_in[98]
*270 la_data_in[99]
*271 la_data_in[9]
*272 la_data_out[0]
*273 la_data_out[100]
*274 la_data_out[101]
*275 la_data_out[102]
*276 la_data_out[103]
*277 la_data_out[104]
*278 la_data_out[105]
*279 la_data_out[106]
*280 la_data_out[107]
*281 la_data_out[108]
*282 la_data_out[109]
*283 la_data_out[10]
*284 la_data_out[110]
*285 la_data_out[111]
*286 la_data_out[112]
*287 la_data_out[113]
*288 la_data_out[114]
*289 la_data_out[115]
*290 la_data_out[116]
*291 la_data_out[117]
*292 la_data_out[118]
*293 la_data_out[119]
*294 la_data_out[11]
*295 la_data_out[120]
*296 la_data_out[121]
*297 la_data_out[122]
*298 la_data_out[123]
*299 la_data_out[124]
*300 la_data_out[125]
*301 la_data_out[126]
*302 la_data_out[127]
*303 la_data_out[12]
*304 la_data_out[13]
*305 la_data_out[14]
*306 la_data_out[15]
*307 la_data_out[16]
*308 la_data_out[17]
*309 la_data_out[18]
*310 la_data_out[19]
*311 la_data_out[1]
*312 la_data_out[20]
*313 la_data_out[21]
*314 la_data_out[22]
*315 la_data_out[23]
*316 la_data_out[24]
*317 la_data_out[25]
*318 la_data_out[26]
*319 la_data_out[27]
*320 la_data_out[28]
*321 la_data_out[29]
*322 la_data_out[2]
*323 la_data_out[30]
*324 la_data_out[31]
*325 la_data_out[32]
*326 la_data_out[33]
*327 la_data_out[34]
*328 la_data_out[35]
*329 la_data_out[36]
*330 la_data_out[37]
*331 la_data_out[38]
*332 la_data_out[39]
*333 la_data_out[3]
*334 la_data_out[40]
*335 la_data_out[41]
*336 la_data_out[42]
*337 la_data_out[43]
*338 la_data_out[44]
*339 la_data_out[45]
*340 la_data_out[46]
*341 la_data_out[47]
*342 la_data_out[48]
*343 la_data_out[49]
*344 la_data_out[4]
*345 la_data_out[50]
*346 la_data_out[51]
*347 la_data_out[52]
*348 la_data_out[53]
*349 la_data_out[54]
*350 la_data_out[55]
*351 la_data_out[56]
*352 la_data_out[57]
*353 la_data_out[58]
*354 la_data_out[59]
*355 la_data_out[5]
*356 la_data_out[60]
*357 la_data_out[61]
*358 la_data_out[62]
*359 la_data_out[63]
*360 la_data_out[64]
*361 la_data_out[65]
*362 la_data_out[66]
*363 la_data_out[67]
*364 la_data_out[68]
*365 la_data_out[69]
*366 la_data_out[6]
*367 la_data_out[70]
*368 la_data_out[71]
*369 la_data_out[72]
*370 la_data_out[73]
*371 la_data_out[74]
*372 la_data_out[75]
*373 la_data_out[76]
*374 la_data_out[77]
*375 la_data_out[78]
*376 la_data_out[79]
*377 la_data_out[7]
*378 la_data_out[80]
*379 la_data_out[81]
*380 la_data_out[82]
*381 la_data_out[83]
*382 la_data_out[84]
*383 la_data_out[85]
*384 la_data_out[86]
*385 la_data_out[87]
*386 la_data_out[88]
*387 la_data_out[89]
*388 la_data_out[8]
*389 la_data_out[90]
*390 la_data_out[91]
*391 la_data_out[92]
*392 la_data_out[93]
*393 la_data_out[94]
*394 la_data_out[95]
*395 la_data_out[96]
*396 la_data_out[97]
*397 la_data_out[98]
*398 la_data_out[99]
*399 la_data_out[9]
*400 la_oenb[0]
*401 la_oenb[100]
*402 la_oenb[101]
*403 la_oenb[102]
*404 la_oenb[103]
*405 la_oenb[104]
*406 la_oenb[105]
*407 la_oenb[106]
*408 la_oenb[107]
*409 la_oenb[108]
*410 la_oenb[109]
*411 la_oenb[10]
*412 la_oenb[110]
*413 la_oenb[111]
*414 la_oenb[112]
*415 la_oenb[113]
*416 la_oenb[114]
*417 la_oenb[115]
*418 la_oenb[116]
*419 la_oenb[117]
*420 la_oenb[118]
*421 la_oenb[119]
*422 la_oenb[11]
*423 la_oenb[120]
*424 la_oenb[121]
*425 la_oenb[122]
*426 la_oenb[123]
*427 la_oenb[124]
*428 la_oenb[125]
*429 la_oenb[126]
*430 la_oenb[127]
*431 la_oenb[12]
*432 la_oenb[13]
*433 la_oenb[14]
*434 la_oenb[15]
*435 la_oenb[16]
*436 la_oenb[17]
*437 la_oenb[18]
*438 la_oenb[19]
*439 la_oenb[1]
*440 la_oenb[20]
*441 la_oenb[21]
*442 la_oenb[22]
*443 la_oenb[23]
*444 la_oenb[24]
*445 la_oenb[25]
*446 la_oenb[26]
*447 la_oenb[27]
*448 la_oenb[28]
*449 la_oenb[29]
*450 la_oenb[2]
*451 la_oenb[30]
*452 la_oenb[31]
*453 la_oenb[32]
*454 la_oenb[33]
*455 la_oenb[34]
*456 la_oenb[35]
*457 la_oenb[36]
*458 la_oenb[37]
*459 la_oenb[38]
*460 la_oenb[39]
*461 la_oenb[3]
*462 la_oenb[40]
*463 la_oenb[41]
*464 la_oenb[42]
*465 la_oenb[43]
*466 la_oenb[44]
*467 la_oenb[45]
*468 la_oenb[46]
*469 la_oenb[47]
*470 la_oenb[48]
*471 la_oenb[49]
*472 la_oenb[4]
*473 la_oenb[50]
*474 la_oenb[51]
*475 la_oenb[52]
*476 la_oenb[53]
*477 la_oenb[54]
*478 la_oenb[55]
*479 la_oenb[56]
*480 la_oenb[57]
*481 la_oenb[58]
*482 la_oenb[59]
*483 la_oenb[5]
*484 la_oenb[60]
*485 la_oenb[61]
*486 la_oenb[62]
*487 la_oenb[63]
*488 la_oenb[64]
*489 la_oenb[65]
*490 la_oenb[66]
*491 la_oenb[67]
*492 la_oenb[68]
*493 la_oenb[69]
*494 la_oenb[6]
*495 la_oenb[70]
*496 la_oenb[71]
*497 la_oenb[72]
*498 la_oenb[73]
*499 la_oenb[74]
*500 la_oenb[75]
*501 la_oenb[76]
*502 la_oenb[77]
*503 la_oenb[78]
*504 la_oenb[79]
*505 la_oenb[7]
*506 la_oenb[80]
*507 la_oenb[81]
*508 la_oenb[82]
*509 la_oenb[83]
*510 la_oenb[84]
*511 la_oenb[85]
*512 la_oenb[86]
*513 la_oenb[87]
*514 la_oenb[88]
*515 la_oenb[89]
*516 la_oenb[8]
*517 la_oenb[90]
*518 la_oenb[91]
*519 la_oenb[92]
*520 la_oenb[93]
*521 la_oenb[94]
*522 la_oenb[95]
*523 la_oenb[96]
*524 la_oenb[97]
*525 la_oenb[98]
*526 la_oenb[99]
*527 la_oenb[9]
*528 user_clock2
*529 user_irq[0]
*530 user_irq[1]
*531 user_irq[2]
*540 wb_clk_i
*541 wb_rst_i
*542 wbs_ack_o
*543 wbs_adr_i[0]
*544 wbs_adr_i[10]
*545 wbs_adr_i[11]
*546 wbs_adr_i[12]
*547 wbs_adr_i[13]
*548 wbs_adr_i[14]
*549 wbs_adr_i[15]
*550 wbs_adr_i[16]
*551 wbs_adr_i[17]
*552 wbs_adr_i[18]
*553 wbs_adr_i[19]
*554 wbs_adr_i[1]
*555 wbs_adr_i[20]
*556 wbs_adr_i[21]
*557 wbs_adr_i[22]
*558 wbs_adr_i[23]
*559 wbs_adr_i[24]
*560 wbs_adr_i[25]
*561 wbs_adr_i[26]
*562 wbs_adr_i[27]
*563 wbs_adr_i[28]
*564 wbs_adr_i[29]
*565 wbs_adr_i[2]
*566 wbs_adr_i[30]
*567 wbs_adr_i[31]
*568 wbs_adr_i[3]
*569 wbs_adr_i[4]
*570 wbs_adr_i[5]
*571 wbs_adr_i[6]
*572 wbs_adr_i[7]
*573 wbs_adr_i[8]
*574 wbs_adr_i[9]
*575 wbs_cyc_i
*576 wbs_dat_i[0]
*577 wbs_dat_i[10]
*578 wbs_dat_i[11]
*579 wbs_dat_i[12]
*580 wbs_dat_i[13]
*581 wbs_dat_i[14]
*582 wbs_dat_i[15]
*583 wbs_dat_i[16]
*584 wbs_dat_i[17]
*585 wbs_dat_i[18]
*586 wbs_dat_i[19]
*587 wbs_dat_i[1]
*588 wbs_dat_i[20]
*589 wbs_dat_i[21]
*590 wbs_dat_i[22]
*591 wbs_dat_i[23]
*592 wbs_dat_i[24]
*593 wbs_dat_i[25]
*594 wbs_dat_i[26]
*595 wbs_dat_i[27]
*596 wbs_dat_i[28]
*597 wbs_dat_i[29]
*598 wbs_dat_i[2]
*599 wbs_dat_i[30]
*600 wbs_dat_i[31]
*601 wbs_dat_i[3]
*602 wbs_dat_i[4]
*603 wbs_dat_i[5]
*604 wbs_dat_i[6]
*605 wbs_dat_i[7]
*606 wbs_dat_i[8]
*607 wbs_dat_i[9]
*608 wbs_dat_o[0]
*609 wbs_dat_o[10]
*610 wbs_dat_o[11]
*611 wbs_dat_o[12]
*612 wbs_dat_o[13]
*613 wbs_dat_o[14]
*614 wbs_dat_o[15]
*615 wbs_dat_o[16]
*616 wbs_dat_o[17]
*617 wbs_dat_o[18]
*618 wbs_dat_o[19]
*619 wbs_dat_o[1]
*620 wbs_dat_o[20]
*621 wbs_dat_o[21]
*622 wbs_dat_o[22]
*623 wbs_dat_o[23]
*624 wbs_dat_o[24]
*625 wbs_dat_o[25]
*626 wbs_dat_o[26]
*627 wbs_dat_o[27]
*628 wbs_dat_o[28]
*629 wbs_dat_o[29]
*630 wbs_dat_o[2]
*631 wbs_dat_o[30]
*632 wbs_dat_o[31]
*633 wbs_dat_o[3]
*634 wbs_dat_o[4]
*635 wbs_dat_o[5]
*636 wbs_dat_o[6]
*637 wbs_dat_o[7]
*638 wbs_dat_o[8]
*639 wbs_dat_o[9]
*640 wbs_sel_i[0]
*641 wbs_sel_i[1]
*642 wbs_sel_i[2]
*643 wbs_sel_i[3]
*644 wbs_stb_i
*645 wbs_we_i
*646 _000_
*647 _001_
*648 _002_
*649 _003_
*650 _004_
*651 _005_
*652 _006_
*653 _007_
*654 _008_
*655 _009_
*656 _010_
*657 _011_
*658 _012_
*659 _013_
*660 _014_
*661 _015_
*662 _016_
*663 _017_
*664 _018_
*665 _019_
*666 _020_
*667 _021_
*668 _022_
*669 _023_
*670 _024_
*671 _025_
*672 _026_
*673 _027_
*674 _028_
*675 _029_
*676 _030_
*677 _031_
*678 _032_
*679 _033_
*680 _034_
*681 _035_
*682 _036_
*683 _037_
*684 _038_
*685 _039_
*686 _040_
*687 _041_
*688 _042_
*689 _043_
*690 _044_
*691 _045_
*692 _046_
*693 _047_
*694 _048_
*695 _049_
*696 _050_
*697 _051_
*698 _052_
*699 _053_
*700 _054_
*701 _055_
*702 _056_
*703 _057_
*704 _058_
*705 _059_
*706 _060_
*707 _061_
*708 _062_
*709 _063_
*710 _064_
*711 _065_
*712 _066_
*713 _067_
*714 _068_
*715 _069_
*716 _070_
*717 _071_
*718 _072_
*719 _073_
*720 _074_
*721 _075_
*722 _076_
*723 _077_
*724 _078_
*725 _079_
*726 _080_
*727 _081_
*728 _082_
*729 _083_
*730 _084_
*731 _085_
*732 _086_
*733 _087_
*734 _088_
*735 _089_
*736 _090_
*737 _091_
*738 _092_
*739 _093_
*740 _094_
*741 _095_
*742 _096_
*743 _097_
*744 _098_
*745 _099_
*746 _100_
*747 _101_
*748 _102_
*749 _103_
*750 _104_
*751 _105_
*752 _106_
*753 _107_
*754 _108_
*755 _109_
*756 _110_
*757 _111_
*758 _112_
*759 _113_
*760 _114_
*761 _115_
*762 _116_
*763 _117_
*764 _118_
*765 _119_
*766 _120_
*767 _121_
*768 _122_
*769 _123_
*770 _124_
*771 _125_
*772 _126_
*773 _127_
*774 _128_
*775 _129_
*776 _130_
*777 _131_
*778 _132_
*779 _133_
*780 _134_
*781 _135_
*782 _136_
*783 _137_
*784 _138_
*785 _139_
*786 _140_
*787 _141_
*788 _142_
*789 _143_
*790 _144_
*791 _145_
*792 _146_
*793 _147_
*794 _148_
*795 _149_
*796 _150_
*797 _151_
*798 _152_
*799 _153_
*800 _154_
*801 _155_
*802 _156_
*803 _157_
*804 _158_
*805 _159_
*806 _160_
*807 _161_
*808 _162_
*809 _163_
*810 _164_
*811 _165_
*812 _166_
*813 _167_
*814 _168_
*815 _169_
*816 _170_
*817 _171_
*818 _172_
*819 _173_
*820 _174_
*821 _175_
*822 _176_
*823 _177_
*824 _178_
*825 _179_
*826 _180_
*827 _181_
*828 _182_
*829 _183_
*830 _184_
*831 _185_
*832 _186_
*833 _187_
*834 _188_
*835 _189_
*836 _190_
*837 _191_
*838 _192_
*839 _193_
*840 _194_
*841 _195_
*842 _196_
*843 _197_
*844 _198_
*845 _199_
*846 _200_
*847 _201_
*848 _202_
*849 _203_
*850 _204_
*851 _205_
*852 _206_
*853 _207_
*854 _208_
*855 _209_
*856 _210_
*857 _211_
*858 _212_
*859 _213_
*860 _214_
*861 _215_
*862 _216_
*863 _217_
*864 _218_
*865 _219_
*866 _220_
*867 _221_
*868 _222_
*869 _223_
*870 _224_
*871 _225_
*872 _226_
*873 _227_
*874 _228_
*875 _229_
*876 _230_
*877 _231_
*878 _232_
*879 _233_
*880 _234_
*881 _235_
*882 _236_
*883 _237_
*884 _238_
*885 _239_
*886 _240_
*887 _241_
*888 _242_
*889 _243_
*890 _244_
*891 _245_
*892 _246_
*893 _247_
*894 _248_
*895 _249_
*896 _250_
*897 _251_
*898 _252_
*899 _253_
*900 _254_
*901 _255_
*902 _256_
*903 _257_
*904 _258_
*905 _259_
*906 _260_
*907 _261_
*908 _262_
*909 _263_
*910 _264_
*911 _265_
*912 _266_
*913 _267_
*914 _268_
*915 _269_
*916 _270_
*917 _271_
*918 _272_
*919 _273_
*920 _274_
*921 _275_
*922 _276_
*923 _277_
*924 _278_
*925 _279_
*926 _280_
*927 _281_
*928 _282_
*929 _283_
*930 _284_
*931 _285_
*932 _286_
*933 _287_
*934 _288_
*935 _289_
*936 _290_
*937 _291_
*938 _292_
*939 _293_
*940 _294_
*941 _295_
*942 _296_
*943 _297_
*944 _298_
*945 _299_
*946 _300_
*947 _301_
*948 _302_
*949 _303_
*950 _304_
*951 _305_
*952 _306_
*953 _307_
*954 _308_
*955 _309_
*956 _310_
*957 _311_
*958 _312_
*959 _313_
*960 _314_
*961 _315_
*962 _316_
*963 _317_
*964 _318_
*965 _319_
*966 _320_
*967 _321_
*968 _322_
*969 _323_
*970 _324_
*971 _325_
*972 _326_
*973 _327_
*974 _328_
*975 _329_
*976 _330_
*977 _331_
*978 _332_
*979 _333_
*980 _334_
*981 _335_
*982 _336_
*983 _337_
*984 _338_
*985 _339_
*986 _340_
*987 _341_
*988 _342_
*989 _343_
*990 _344_
*991 _345_
*992 _346_
*993 _347_
*994 _348_
*995 _349_
*996 _350_
*997 _351_
*998 _352_
*999 _353_
*1000 _354_
*1001 _355_
*1002 _356_
*1003 _357_
*1004 _358_
*1005 _359_
*1006 _360_
*1007 _361_
*1008 _362_
*1009 _363_
*1010 _364_
*1011 _365_
*1012 _366_
*1013 _367_
*1014 _368_
*1015 _369_
*1016 _370_
*1017 _371_
*1018 _372_
*1019 _373_
*1020 _374_
*1021 _375_
*1022 _376_
*1023 _377_
*1024 _378_
*1025 _379_
*1026 _380_
*1027 _381_
*1028 _382_
*1029 _383_
*1030 _384_
*1031 _385_
*1032 _386_
*1033 _387_
*1034 _388_
*1035 _389_
*1036 _390_
*1037 _391_
*1038 _392_
*1039 _393_
*1040 _394_
*1041 _395_
*1042 _396_
*1043 _397_
*1044 _398_
*1045 _399_
*1046 _400_
*1047 _401_
*1048 _402_
*1049 _403_
*1050 _404_
*1051 _405_
*1052 _406_
*1053 _407_
*1054 _408_
*1055 _409_
*1056 _410_
*1057 _411_
*1058 _412_
*1059 _413_
*1060 _414_
*1061 _415_
*1062 _416_
*1063 _417_
*1064 _418_
*1065 _419_
*1066 _420_
*1067 _421_
*1068 _422_
*1069 _423_
*1070 _424_
*1071 _425_
*1072 _426_
*1073 _427_
*1074 _428_
*1075 _429_
*1076 _430_
*1077 _431_
*1078 _432_
*1079 _433_
*1080 _434_
*1081 _435_
*1082 _436_
*1083 _437_
*1084 _438_
*1085 _439_
*1086 buf_out_north\[0\]
*1087 buf_out_north\[10\]
*1088 buf_out_north\[11\]
*1089 buf_out_north\[12\]
*1090 buf_out_north\[13\]
*1091 buf_out_north\[14\]
*1092 buf_out_north\[15\]
*1093 buf_out_north\[16\]
*1094 buf_out_north\[17\]
*1095 buf_out_north\[18\]
*1096 buf_out_north\[19\]
*1097 buf_out_north\[1\]
*1098 buf_out_north\[20\]
*1099 buf_out_north\[21\]
*1100 buf_out_north\[22\]
*1101 buf_out_north\[23\]
*1102 buf_out_north\[24\]
*1103 buf_out_north\[25\]
*1104 buf_out_north\[26\]
*1105 buf_out_north\[27\]
*1106 buf_out_north\[28\]
*1107 buf_out_north\[29\]
*1108 buf_out_north\[2\]
*1109 buf_out_north\[30\]
*1110 buf_out_north\[31\]
*1111 buf_out_north\[32\]
*1112 buf_out_north\[33\]
*1113 buf_out_north\[34\]
*1114 buf_out_north\[35\]
*1115 buf_out_north\[36\]
*1116 buf_out_north\[37\]
*1117 buf_out_north\[38\]
*1118 buf_out_north\[39\]
*1119 buf_out_north\[3\]
*1120 buf_out_north\[40\]
*1121 buf_out_north\[41\]
*1122 buf_out_north\[4\]
*1123 buf_out_north\[5\]
*1124 buf_out_north\[6\]
*1125 buf_out_north\[7\]
*1126 buf_out_north\[8\]
*1127 buf_out_north\[9\]
*1128 cfg_clk_skew_ctrl1\[0\]
*1129 cfg_clk_skew_ctrl1\[10\]
*1130 cfg_clk_skew_ctrl1\[11\]
*1131 cfg_clk_skew_ctrl1\[12\]
*1132 cfg_clk_skew_ctrl1\[13\]
*1133 cfg_clk_skew_ctrl1\[14\]
*1134 cfg_clk_skew_ctrl1\[15\]
*1135 cfg_clk_skew_ctrl1\[16\]
*1136 cfg_clk_skew_ctrl1\[17\]
*1137 cfg_clk_skew_ctrl1\[18\]
*1138 cfg_clk_skew_ctrl1\[19\]
*1139 cfg_clk_skew_ctrl1\[1\]
*1140 cfg_clk_skew_ctrl1\[20\]
*1141 cfg_clk_skew_ctrl1\[21\]
*1142 cfg_clk_skew_ctrl1\[22\]
*1143 cfg_clk_skew_ctrl1\[23\]
*1144 cfg_clk_skew_ctrl1\[24\]
*1145 cfg_clk_skew_ctrl1\[25\]
*1146 cfg_clk_skew_ctrl1\[26\]
*1147 cfg_clk_skew_ctrl1\[27\]
*1148 cfg_clk_skew_ctrl1\[28\]
*1149 cfg_clk_skew_ctrl1\[29\]
*1150 cfg_clk_skew_ctrl1\[2\]
*1151 cfg_clk_skew_ctrl1\[30\]
*1152 cfg_clk_skew_ctrl1\[31\]
*1153 cfg_clk_skew_ctrl1\[3\]
*1154 cfg_clk_skew_ctrl1\[4\]
*1155 cfg_clk_skew_ctrl1\[5\]
*1156 cfg_clk_skew_ctrl1\[6\]
*1157 cfg_clk_skew_ctrl1\[7\]
*1158 cfg_clk_skew_ctrl1\[8\]
*1159 cfg_clk_skew_ctrl1\[9\]
*1160 cfg_clk_skew_ctrl2\[0\]
*1161 cfg_clk_skew_ctrl2\[10\]
*1162 cfg_clk_skew_ctrl2\[11\]
*1163 cfg_clk_skew_ctrl2\[12\]
*1164 cfg_clk_skew_ctrl2\[13\]
*1165 cfg_clk_skew_ctrl2\[14\]
*1166 cfg_clk_skew_ctrl2\[15\]
*1167 cfg_clk_skew_ctrl2\[16\]
*1168 cfg_clk_skew_ctrl2\[17\]
*1169 cfg_clk_skew_ctrl2\[18\]
*1170 cfg_clk_skew_ctrl2\[19\]
*1171 cfg_clk_skew_ctrl2\[1\]
*1172 cfg_clk_skew_ctrl2\[20\]
*1173 cfg_clk_skew_ctrl2\[21\]
*1174 cfg_clk_skew_ctrl2\[22\]
*1175 cfg_clk_skew_ctrl2\[23\]
*1176 cfg_clk_skew_ctrl2\[24\]
*1177 cfg_clk_skew_ctrl2\[25\]
*1178 cfg_clk_skew_ctrl2\[26\]
*1179 cfg_clk_skew_ctrl2\[27\]
*1180 cfg_clk_skew_ctrl2\[28\]
*1181 cfg_clk_skew_ctrl2\[29\]
*1182 cfg_clk_skew_ctrl2\[2\]
*1183 cfg_clk_skew_ctrl2\[30\]
*1184 cfg_clk_skew_ctrl2\[31\]
*1185 cfg_clk_skew_ctrl2\[3\]
*1186 cfg_clk_skew_ctrl2\[4\]
*1187 cfg_clk_skew_ctrl2\[5\]
*1188 cfg_clk_skew_ctrl2\[6\]
*1189 cfg_clk_skew_ctrl2\[7\]
*1190 cfg_clk_skew_ctrl2\[8\]
*1191 cfg_clk_skew_ctrl2\[9\]
*1192 cfg_dc_trim\[0\]
*1193 cfg_dc_trim\[10\]
*1194 cfg_dc_trim\[11\]
*1195 cfg_dc_trim\[12\]
*1196 cfg_dc_trim\[13\]
*1197 cfg_dc_trim\[14\]
*1198 cfg_dc_trim\[15\]
*1199 cfg_dc_trim\[16\]
*1200 cfg_dc_trim\[17\]
*1201 cfg_dc_trim\[18\]
*1202 cfg_dc_trim\[19\]
*1203 cfg_dc_trim\[1\]
*1204 cfg_dc_trim\[20\]
*1205 cfg_dc_trim\[21\]
*1206 cfg_dc_trim\[22\]
*1207 cfg_dc_trim\[23\]
*1208 cfg_dc_trim\[24\]
*1209 cfg_dc_trim\[25\]
*1210 cfg_dc_trim\[2\]
*1211 cfg_dc_trim\[3\]
*1212 cfg_dc_trim\[4\]
*1213 cfg_dc_trim\[5\]
*1214 cfg_dc_trim\[6\]
*1215 cfg_dc_trim\[7\]
*1216 cfg_dc_trim\[8\]
*1217 cfg_dc_trim\[9\]
*1218 cfg_dco_mode
*1219 cfg_fast_sim
*1220 cfg_pll_enb
*1221 cfg_pll_fed_div\[0\]
*1222 cfg_pll_fed_div\[1\]
*1223 cfg_pll_fed_div\[2\]
*1224 cfg_pll_fed_div\[3\]
*1225 cfg_pll_fed_div\[4\]
*1226 ch_out_east\[11\]
*1227 ch_out_east\[14\]
*1228 ch_out_east\[17\]
*1229 ch_out_east\[20\]
*1230 ch_out_east\[23\]
*1231 ch_out_east\[26\]
*1232 ch_out_east\[29\]
*1233 ch_out_east\[2\]
*1234 ch_out_east\[32\]
*1235 ch_out_east\[35\]
*1236 ch_out_east\[38\]
*1237 ch_out_east\[41\]
*1238 ch_out_east\[44\]
*1239 ch_out_east\[5\]
*1240 ch_out_east\[8\]
*1241 ch_out_north\[11\]
*1242 ch_out_north\[14\]
*1243 ch_out_north\[17\]
*1244 ch_out_north\[20\]
*1245 ch_out_north\[23\]
*1246 ch_out_north\[26\]
*1247 ch_out_north\[2\]
*1248 ch_out_north\[5\]
*1249 ch_out_north\[8\]
*1250 ch_out_south\[0\]
*1251 ch_out_south\[100\]
*1252 ch_out_south\[101\]
*1253 ch_out_south\[103\]
*1254 ch_out_south\[104\]
*1255 ch_out_south\[106\]
*1256 ch_out_south\[108\]
*1257 ch_out_south\[10\]
*1258 ch_out_south\[110\]
*1259 ch_out_south\[112\]
*1260 ch_out_south\[114\]
*1261 ch_out_south\[116\]
*1262 ch_out_south\[118\]
*1263 ch_out_south\[11\]
*1264 ch_out_south\[120\]
*1265 ch_out_south\[122\]
*1266 ch_out_south\[124\]
*1267 ch_out_south\[126\]
*1268 ch_out_south\[128\]
*1269 ch_out_south\[130\]
*1270 ch_out_south\[132\]
*1271 ch_out_south\[134\]
*1272 ch_out_south\[136\]
*1273 ch_out_south\[138\]
*1274 ch_out_south\[13\]
*1275 ch_out_south\[140\]
*1276 ch_out_south\[14\]
*1277 ch_out_south\[15\]
*1278 ch_out_south\[17\]
*1279 ch_out_south\[18\]
*1280 ch_out_south\[19\]
*1281 ch_out_south\[1\]
*1282 ch_out_south\[21\]
*1283 ch_out_south\[22\]
*1284 ch_out_south\[23\]
*1285 ch_out_south\[252\]
*1286 ch_out_south\[25\]
*1287 ch_out_south\[26\]
*1288 ch_out_south\[28\]
*1289 ch_out_south\[29\]
*1290 ch_out_south\[31\]
*1291 ch_out_south\[32\]
*1292 ch_out_south\[34\]
*1293 ch_out_south\[35\]
*1294 ch_out_south\[37\]
*1295 ch_out_south\[38\]
*1296 ch_out_south\[3\]
*1297 ch_out_south\[40\]
*1298 ch_out_south\[41\]
*1299 ch_out_south\[43\]
*1300 ch_out_south\[44\]
*1301 ch_out_south\[46\]
*1302 ch_out_south\[47\]
*1303 ch_out_south\[49\]
*1304 ch_out_south\[4\]
*1305 ch_out_south\[50\]
*1306 ch_out_south\[52\]
*1307 ch_out_south\[53\]
*1308 ch_out_south\[55\]
*1309 ch_out_south\[56\]
*1310 ch_out_south\[58\]
*1311 ch_out_south\[59\]
*1312 ch_out_south\[5\]
*1313 ch_out_south\[61\]
*1314 ch_out_south\[62\]
*1315 ch_out_south\[64\]
*1316 ch_out_south\[65\]
*1317 ch_out_south\[67\]
*1318 ch_out_south\[68\]
*1319 ch_out_south\[6\]
*1320 ch_out_south\[70\]
*1321 ch_out_south\[71\]
*1322 ch_out_south\[73\]
*1323 ch_out_south\[74\]
*1324 ch_out_south\[76\]
*1325 ch_out_south\[77\]
*1326 ch_out_south\[79\]
*1327 ch_out_south\[7\]
*1328 ch_out_south\[80\]
*1329 ch_out_south\[82\]
*1330 ch_out_south\[83\]
*1331 ch_out_south\[85\]
*1332 ch_out_south\[86\]
*1333 ch_out_south\[88\]
*1334 ch_out_south\[89\]
*1335 ch_out_south\[91\]
*1336 ch_out_south\[92\]
*1337 ch_out_south\[94\]
*1338 ch_out_south\[95\]
*1339 ch_out_south\[97\]
*1340 ch_out_south\[98\]
*1341 ch_out_south\[9\]
*1342 e_reset_n
*1343 e_reset_n_rp
*1344 io_oeb_int\[15\]
*1345 io_oeb_int\[16\]
*1346 io_oeb_int\[17\]
*1347 io_oeb_int\[18\]
*1348 io_oeb_int\[19\]
*1349 io_oeb_int\[20\]
*1350 io_oeb_int\[21\]
*1351 io_oeb_int\[22\]
*1352 io_oeb_int\[23\]
*1353 io_out_int\[15\]
*1354 io_out_int\[16\]
*1355 io_out_int\[17\]
*1356 io_out_int\[18\]
*1357 io_out_int\[19\]
*1358 io_out_int\[20\]
*1359 io_out_int\[21\]
*1360 io_out_int\[22\]
*1361 io_out_int\[23\]
*1362 p_reset_n
*1363 p_reset_n_rp
*1364 pinmux_debug\[0\]
*1365 pinmux_debug\[10\]
*1366 pinmux_debug\[11\]
*1367 pinmux_debug\[12\]
*1368 pinmux_debug\[13\]
*1369 pinmux_debug\[14\]
*1370 pinmux_debug\[15\]
*1371 pinmux_debug\[16\]
*1372 pinmux_debug\[17\]
*1373 pinmux_debug\[18\]
*1374 pinmux_debug\[19\]
*1375 pinmux_debug\[1\]
*1376 pinmux_debug\[20\]
*1377 pinmux_debug\[21\]
*1378 pinmux_debug\[22\]
*1379 pinmux_debug\[23\]
*1380 pinmux_debug\[24\]
*1381 pinmux_debug\[25\]
*1382 pinmux_debug\[26\]
*1383 pinmux_debug\[27\]
*1384 pinmux_debug\[28\]
*1385 pinmux_debug\[29\]
*1386 pinmux_debug\[2\]
*1387 pinmux_debug\[30\]
*1388 pinmux_debug\[31\]
*1389 pinmux_debug\[3\]
*1390 pinmux_debug\[4\]
*1391 pinmux_debug\[5\]
*1392 pinmux_debug\[6\]
*1393 pinmux_debug\[7\]
*1394 pinmux_debug\[8\]
*1395 pinmux_debug\[9\]
*1396 pinmux_mclk
*1397 pll_clk_out\[0\]
*1398 pll_clk_out\[1\]
*1399 pll_ref_clk
*1400 s_reset_n
*1401 usb_clk
*1402 usb_dn_i
*1403 usb_dn_o
*1404 usb_dp_i
*1405 usb_dp_o
*1406 usb_intr_o
*1407 usb_mclk
*1408 usb_oen
*1409 usb_rst_n
*1410 wbd_clk_int
*1411 wbd_clk_pinmux_skew
*1412 wbd_clk_usb_skew
*1413 wbd_clk_wh
*1414 wbd_clk_wi_skew
*1415 wbd_int_ack_o
*1416 wbd_int_adr_i\[0\]
*1417 wbd_int_adr_i\[10\]
*1418 wbd_int_adr_i\[11\]
*1419 wbd_int_adr_i\[12\]
*1420 wbd_int_adr_i\[13\]
*1421 wbd_int_adr_i\[14\]
*1422 wbd_int_adr_i\[15\]
*1423 wbd_int_adr_i\[16\]
*1424 wbd_int_adr_i\[17\]
*1425 wbd_int_adr_i\[18\]
*1426 wbd_int_adr_i\[19\]
*1427 wbd_int_adr_i\[1\]
*1428 wbd_int_adr_i\[20\]
*1429 wbd_int_adr_i\[21\]
*1430 wbd_int_adr_i\[22\]
*1431 wbd_int_adr_i\[23\]
*1432 wbd_int_adr_i\[24\]
*1433 wbd_int_adr_i\[25\]
*1434 wbd_int_adr_i\[26\]
*1435 wbd_int_adr_i\[27\]
*1436 wbd_int_adr_i\[28\]
*1437 wbd_int_adr_i\[29\]
*1438 wbd_int_adr_i\[2\]
*1439 wbd_int_adr_i\[30\]
*1440 wbd_int_adr_i\[31\]
*1441 wbd_int_adr_i\[3\]
*1442 wbd_int_adr_i\[4\]
*1443 wbd_int_adr_i\[5\]
*1444 wbd_int_adr_i\[6\]
*1445 wbd_int_adr_i\[7\]
*1446 wbd_int_adr_i\[8\]
*1447 wbd_int_adr_i\[9\]
*1448 wbd_int_cyc_i
*1449 wbd_int_dat_i\[0\]
*1450 wbd_int_dat_i\[10\]
*1451 wbd_int_dat_i\[11\]
*1452 wbd_int_dat_i\[12\]
*1453 wbd_int_dat_i\[13\]
*1454 wbd_int_dat_i\[14\]
*1455 wbd_int_dat_i\[15\]
*1456 wbd_int_dat_i\[16\]
*1457 wbd_int_dat_i\[17\]
*1458 wbd_int_dat_i\[18\]
*1459 wbd_int_dat_i\[19\]
*1460 wbd_int_dat_i\[1\]
*1461 wbd_int_dat_i\[20\]
*1462 wbd_int_dat_i\[21\]
*1463 wbd_int_dat_i\[22\]
*1464 wbd_int_dat_i\[23\]
*1465 wbd_int_dat_i\[24\]
*1466 wbd_int_dat_i\[25\]
*1467 wbd_int_dat_i\[26\]
*1468 wbd_int_dat_i\[27\]
*1469 wbd_int_dat_i\[28\]
*1470 wbd_int_dat_i\[29\]
*1471 wbd_int_dat_i\[2\]
*1472 wbd_int_dat_i\[30\]
*1473 wbd_int_dat_i\[31\]
*1474 wbd_int_dat_i\[3\]
*1475 wbd_int_dat_i\[4\]
*1476 wbd_int_dat_i\[5\]
*1477 wbd_int_dat_i\[6\]
*1478 wbd_int_dat_i\[7\]
*1479 wbd_int_dat_i\[8\]
*1480 wbd_int_dat_i\[9\]
*1481 wbd_int_dat_o\[0\]
*1482 wbd_int_dat_o\[10\]
*1483 wbd_int_dat_o\[11\]
*1484 wbd_int_dat_o\[12\]
*1485 wbd_int_dat_o\[13\]
*1486 wbd_int_dat_o\[14\]
*1487 wbd_int_dat_o\[15\]
*1488 wbd_int_dat_o\[16\]
*1489 wbd_int_dat_o\[17\]
*1490 wbd_int_dat_o\[18\]
*1491 wbd_int_dat_o\[19\]
*1492 wbd_int_dat_o\[1\]
*1493 wbd_int_dat_o\[20\]
*1494 wbd_int_dat_o\[21\]
*1495 wbd_int_dat_o\[22\]
*1496 wbd_int_dat_o\[23\]
*1497 wbd_int_dat_o\[24\]
*1498 wbd_int_dat_o\[25\]
*1499 wbd_int_dat_o\[26\]
*1500 wbd_int_dat_o\[27\]
*1501 wbd_int_dat_o\[28\]
*1502 wbd_int_dat_o\[29\]
*1503 wbd_int_dat_o\[2\]
*1504 wbd_int_dat_o\[30\]
*1505 wbd_int_dat_o\[31\]
*1506 wbd_int_dat_o\[3\]
*1507 wbd_int_dat_o\[4\]
*1508 wbd_int_dat_o\[5\]
*1509 wbd_int_dat_o\[6\]
*1510 wbd_int_dat_o\[7\]
*1511 wbd_int_dat_o\[8\]
*1512 wbd_int_dat_o\[9\]
*1513 wbd_int_err_o
*1514 wbd_int_rst_n
*1515 wbd_int_sel_i\[0\]
*1516 wbd_int_sel_i\[1\]
*1517 wbd_int_sel_i\[2\]
*1518 wbd_int_sel_i\[3\]
*1519 wbd_int_stb_i
*1520 wbd_int_we_i
*1521 wbd_pinmux_ack_i
*1522 wbd_pinmux_adr_o\[0\]
*1523 wbd_pinmux_adr_o\[10\]
*1524 wbd_pinmux_adr_o\[1\]
*1525 wbd_pinmux_adr_o\[2\]
*1526 wbd_pinmux_adr_o\[3\]
*1527 wbd_pinmux_adr_o\[4\]
*1528 wbd_pinmux_adr_o\[5\]
*1529 wbd_pinmux_adr_o\[6\]
*1530 wbd_pinmux_adr_o\[7\]
*1531 wbd_pinmux_adr_o\[8\]
*1532 wbd_pinmux_adr_o\[9\]
*1533 wbd_pinmux_cyc_o
*1534 wbd_pinmux_dat_i\[0\]
*1535 wbd_pinmux_dat_i\[10\]
*1536 wbd_pinmux_dat_i\[11\]
*1537 wbd_pinmux_dat_i\[12\]
*1538 wbd_pinmux_dat_i\[13\]
*1539 wbd_pinmux_dat_i\[14\]
*1540 wbd_pinmux_dat_i\[15\]
*1541 wbd_pinmux_dat_i\[16\]
*1542 wbd_pinmux_dat_i\[17\]
*1543 wbd_pinmux_dat_i\[18\]
*1544 wbd_pinmux_dat_i\[19\]
*1545 wbd_pinmux_dat_i\[1\]
*1546 wbd_pinmux_dat_i\[20\]
*1547 wbd_pinmux_dat_i\[21\]
*1548 wbd_pinmux_dat_i\[22\]
*1549 wbd_pinmux_dat_i\[23\]
*1550 wbd_pinmux_dat_i\[24\]
*1551 wbd_pinmux_dat_i\[25\]
*1552 wbd_pinmux_dat_i\[26\]
*1553 wbd_pinmux_dat_i\[27\]
*1554 wbd_pinmux_dat_i\[28\]
*1555 wbd_pinmux_dat_i\[29\]
*1556 wbd_pinmux_dat_i\[2\]
*1557 wbd_pinmux_dat_i\[30\]
*1558 wbd_pinmux_dat_i\[31\]
*1559 wbd_pinmux_dat_i\[3\]
*1560 wbd_pinmux_dat_i\[4\]
*1561 wbd_pinmux_dat_i\[5\]
*1562 wbd_pinmux_dat_i\[6\]
*1563 wbd_pinmux_dat_i\[7\]
*1564 wbd_pinmux_dat_i\[8\]
*1565 wbd_pinmux_dat_i\[9\]
*1566 wbd_pinmux_dat_o\[0\]
*1567 wbd_pinmux_dat_o\[10\]
*1568 wbd_pinmux_dat_o\[11\]
*1569 wbd_pinmux_dat_o\[12\]
*1570 wbd_pinmux_dat_o\[13\]
*1571 wbd_pinmux_dat_o\[14\]
*1572 wbd_pinmux_dat_o\[15\]
*1573 wbd_pinmux_dat_o\[16\]
*1574 wbd_pinmux_dat_o\[17\]
*1575 wbd_pinmux_dat_o\[18\]
*1576 wbd_pinmux_dat_o\[19\]
*1577 wbd_pinmux_dat_o\[1\]
*1578 wbd_pinmux_dat_o\[20\]
*1579 wbd_pinmux_dat_o\[21\]
*1580 wbd_pinmux_dat_o\[22\]
*1581 wbd_pinmux_dat_o\[23\]
*1582 wbd_pinmux_dat_o\[24\]
*1583 wbd_pinmux_dat_o\[25\]
*1584 wbd_pinmux_dat_o\[26\]
*1585 wbd_pinmux_dat_o\[27\]
*1586 wbd_pinmux_dat_o\[28\]
*1587 wbd_pinmux_dat_o\[29\]
*1588 wbd_pinmux_dat_o\[2\]
*1589 wbd_pinmux_dat_o\[30\]
*1590 wbd_pinmux_dat_o\[31\]
*1591 wbd_pinmux_dat_o\[3\]